 xtb: 6.6.1 (8d0f1dd)
          10142420533D

 68 69  0     0  0            999 V2000
    1.9134    1.2639   -0.0541 Fe  0  0  0  0  0  0  0  0  0  0  0  0
   -1.7399   -1.7234    1.4704 C   0  0  0  0  0  0  0  0  0  0  0  0
    0.4130   -0.8759   -0.1306 Pd  0  0  0  0  0  0  0  0  0  0  0  0
    3.3403   -1.0534   -0.3096 C   0  0  0  0  0  0  0  0  0  0  0  0
    3.3508    3.4299    0.3930 H   0  0  0  0  0  0  0  0  0  0  0  0
    4.1292    1.1643    1.4591 H   0  0  0  0  0  0  0  0  0  0  0  0
    1.9287   -0.1255    2.3641 H   0  0  0  0  0  0  0  0  0  0  0  0
   -1.7393    1.0478   -0.2709 C   0  0  0  0  0  0  0  0  0  0  0  0
   -2.5094   -2.0875    2.3426 O   0  0  0  0  0  0  0  0  0  0  0  0
    2.8063   -0.0015   -1.1975 C   0  0  0  0  0  0  0  0  0  0  0  0
   -0.8406    1.9246   -0.3716 O   0  0  0  0  0  0  0  0  0  0  0  0
    1.2390    1.4367   -1.8848 C   0  0  0  0  0  0  0  0  0  0  0  0
    2.4094    2.1646   -1.6927 C   0  0  0  0  0  0  0  0  0  0  0  0
    3.4017    1.2688   -1.2559 C   0  0  0  0  0  0  0  0  0  0  0  0
    0.3093    1.9027   -2.1121 H   0  0  0  0  0  0  0  0  0  0  0  0
    2.4750    3.2264   -1.7191 H   0  0  0  0  0  0  0  0  0  0  0  0
    4.3783    1.5225   -0.9158 H   0  0  0  0  0  0  0  0  0  0  0  0
    0.4949    0.9374   -0.0858 H   0  0  0  0  0  0  0  0  0  0  0  0
    1.4415    0.0488   -1.5985 C   0  0  0  0  0  0  0  0  0  0  0  0
   -2.2822   -1.2997    0.0672 C   0  0  0  0  0  0  0  0  0  0  0  0
   -0.4753   -1.6268    1.5992 O   0  0  0  0  0  0  0  0  0  0  0  0
    1.9788    0.8109    1.8588 C   0  0  0  0  0  0  0  0  0  0  0  0
    3.1193    1.5035    1.4327 C   0  0  0  0  0  0  0  0  0  0  0  0
    2.7146    2.7356    0.8870 C   0  0  0  0  0  0  0  0  0  0  0  0
    1.3217    2.8019    0.9579 C   0  0  0  0  0  0  0  0  0  0  0  0
    0.8605    1.6274    1.5906 C   0  0  0  0  0  0  0  0  0  0  0  0
   -0.1450    1.4179    1.8813 H   0  0  0  0  0  0  0  0  0  0  0  0
   -1.4294   -0.2107   -0.3467 N   0  0  0  0  0  0  0  0  0  0  0  0
   -3.3276   -0.9851    0.1593 H   0  0  0  0  0  0  0  0  0  0  0  0
    3.7171   -0.5142    0.5564 H   0  0  0  0  0  0  0  0  0  0  0  0
    4.1519   -1.6492   -0.7532 H   0  0  0  0  0  0  0  0  0  0  0  0
    0.7098    3.4975    0.4356 H   0  0  0  0  0  0  0  0  0  0  0  0
    2.2311   -1.9117    0.1102 N   0  0  0  0  0  0  0  0  0  0  0  0
    2.5001   -2.5390    1.3992 C   0  0  0  0  0  0  0  0  0  0  0  0
    2.0057   -2.9684   -0.8774 C   0  0  0  0  0  0  0  0  0  0  0  0
    3.2246   -3.3578    1.3010 H   0  0  0  0  0  0  0  0  0  0  0  0
    2.9111   -1.8113    2.0953 H   0  0  0  0  0  0  0  0  0  0  0  0
    1.5717   -2.9309    1.8148 H   0  0  0  0  0  0  0  0  0  0  0  0
    2.8720   -3.6463   -0.9303 H   0  0  0  0  0  0  0  0  0  0  0  0
    1.1284   -3.5548   -0.5903 H   0  0  0  0  0  0  0  0  0  0  0  0
    1.8495   -2.5282   -1.8634 H   0  0  0  0  0  0  0  0  0  0  0  0
   -2.1588   -2.4449   -0.9600 C   0  0  0  0  0  0  0  0  0  0  0  0
   -2.8553   -2.0313   -2.2559 C   0  0  0  0  0  0  0  0  0  0  0  0
   -2.7055   -3.7723   -0.4152 C   0  0  0  0  0  0  0  0  0  0  0  0
   -1.6078   -4.6470    0.1833 C   0  0  0  0  0  0  0  0  0  0  0  0
   -3.9273   -1.9342   -2.0945 H   0  0  0  0  0  0  0  0  0  0  0  0
   -2.6870   -2.7706   -3.0374 H   0  0  0  0  0  0  0  0  0  0  0  0
   -2.4670   -1.0720   -2.5948 H   0  0  0  0  0  0  0  0  0  0  0  0
   -1.0733   -2.5620   -1.1877 H   0  0  0  0  0  0  0  0  0  0  0  0
   -3.1954   -4.3223   -1.2230 H   0  0  0  0  0  0  0  0  0  0  0  0
   -3.4529   -3.5660    0.3527 H   0  0  0  0  0  0  0  0  0  0  0  0
   -2.0327   -5.5502    0.6159 H   0  0  0  0  0  0  0  0  0  0  0  0
   -0.8908   -4.9426   -0.5846 H   0  0  0  0  0  0  0  0  0  0  0  0
   -1.0879   -4.1127    0.9756 H   0  0  0  0  0  0  0  0  0  0  0  0
   -3.0411    1.3512   -0.0990 O   0  0  0  0  0  0  0  0  0  0  0  0
   -4.9580    2.6440    0.2655 C   0  0  0  0  0  0  0  0  0  0  0  0
   -3.4441    2.7227    0.0622 C   0  0  0  0  0  0  0  0  0  0  0  0
   -2.7725    3.3313    1.2956 C   0  0  0  0  0  0  0  0  0  0  0  0
   -3.1135    3.5318   -1.1937 C   0  0  0  0  0  0  0  0  0  0  0  0
   -5.4249    2.1834   -0.6010 H   0  0  0  0  0  0  0  0  0  0  0  0
   -5.1813    2.0372    1.1388 H   0  0  0  0  0  0  0  0  0  0  0  0
   -5.3690    3.6395    0.4062 H   0  0  0  0  0  0  0  0  0  0  0  0
   -2.9655    2.7065    2.1651 H   0  0  0  0  0  0  0  0  0  0  0  0
   -3.1711    4.3252    1.4791 H   0  0  0  0  0  0  0  0  0  0  0  0
   -1.6993    3.3973    1.1381 H   0  0  0  0  0  0  0  0  0  0  0  0
   -3.5757    3.0713   -2.0640 H   0  0  0  0  0  0  0  0  0  0  0  0
   -3.4884    4.5459   -1.0870 H   0  0  0  0  0  0  0  0  0  0  0  0
   -2.0366    3.5577   -1.3391 H   0  0  0  0  0  0  0  0  0  0  0  0
  2  9  2  0  0  0  0
  4 10  1  0  0  0  0
  8 11  4  0  0  0  0
 12 13  4  0  0  0  0
 10 14  4  0  0  0  0
 13 14  4  0  0  0  0
 12 15  1  0  0  0  0
 13 16  1  0  0  0  0
 14 17  1  0  0  0  0
  3 18  1  0  0  0  0
  3 19  1  0  0  0  0
 10 19  4  0  0  0  0
 12 19  1  0  0  0  0
  2 20  1  0  0  0  0
  2 21  4  0  0  0  0
  3 21  1  0  0  0  0
  7 22  1  0  0  0  0
  6 23  1  0  0  0  0
 22 23  4  0  0  0  0
  5 24  1  0  0  0  0
 23 24  4  0  0  0  0
 24 25  4  0  0  0  0
 22 26  4  0  0  0  0
 25 26  4  0  0  0  0
 26 27  1  0  0  0  0
  3 28  1  0  0  0  0
  8 28  4  0  0  0  0
 20 28  1  0  0  0  0
 20 29  1  0  0  0  0
  4 30  1  0  0  0  0
  4 31  1  0  0  0  0
 25 32  1  0  0  0  0
  3 33  1  0  0  0  0
  4 33  1  0  0  0  0
 33 34  1  0  0  0  0
 33 35  1  0  0  0  0
 34 36  1  0  0  0  0
 34 37  1  0  0  0  0
 34 38  1  0  0  0  0
 35 39  1  0  0  0  0
 35 40  1  0  0  0  0
 35 41  1  0  0  0  0
 20 42  1  0  0  0  0
 42 43  1  0  0  0  0
 42 44  1  0  0  0  0
 44 45  1  0  0  0  0
 43 46  1  0  0  0  0
 43 47  1  0  0  0  0
 43 48  1  0  0  0  0
 42 49  1  0  0  0  0
 44 50  1  0  0  0  0
 44 51  1  0  0  0  0
 45 52  1  0  0  0  0
 45 53  1  0  0  0  0
 45 54  1  0  0  0  0
  8 55  1  0  0  0  0
 55 57  1  0  0  0  0
 56 57  1  0  0  0  0
 57 58  1  0  0  0  0
 57 59  1  0  0  0  0
 56 60  1  0  0  0  0
 56 61  1  0  0  0  0
 56 62  1  0  0  0  0
 58 63  1  0  0  0  0
 58 64  1  0  0  0  0
 58 65  1  0  0  0  0
 59 66  1  0  0  0  0
 59 67  1  0  0  0  0
 59 68  1  0  0  0  0
M  END
