 xtb: 6.6.1 (8d0f1dd)
          10142420243D

 69 71  0     0  0            999 V2000
    2.6188   -0.5817    0.0308 Fe  0  0  0  0  0  0  0  0  0  0  0  0
   -2.0969    0.3092    1.2204 C   0  0  0  0  0  0  0  0  0  0  0  0
    0.0270   -0.8109   -0.2550 Pd  0  0  0  0  0  0  0  0  0  0  0  0
    1.7821   -3.1631   -0.2864 C   0  0  0  0  0  0  0  0  0  0  0  0
    5.1571   -0.2787    0.6834 H   0  0  0  0  0  0  0  0  0  0  0  0
    3.8504   -2.3394    1.6432 H   0  0  0  0  0  0  0  0  0  0  0  0
    1.3791   -1.4978    2.3530 H   0  0  0  0  0  0  0  0  0  0  0  0
    0.1327    2.0801   -0.3826 C   0  0  0  0  0  0  0  0  0  0  0  0
   -2.8999    0.6866    2.0535 O   0  0  0  0  0  0  0  0  0  0  0  0
    2.3169   -2.0810   -1.1373 C   0  0  0  0  0  0  0  0  0  0  0  0
    1.3843    1.9510   -0.3904 O   0  0  0  0  0  0  0  0  0  0  0  0
    2.4649    0.0439   -1.8185 C   0  0  0  0  0  0  0  0  0  0  0  0
    3.7553   -0.3845   -1.5222 C   0  0  0  0  0  0  0  0  0  0  0  0
    3.6729   -1.7201   -1.0885 C   0  0  0  0  0  0  0  0  0  0  0  0
    2.2421    1.0551   -2.0649 H   0  0  0  0  0  0  0  0  0  0  0  0
    4.6101    0.2478   -1.4816 H   0  0  0  0  0  0  0  0  0  0  0  0
    4.4658   -2.3043   -0.6838 H   0  0  0  0  0  0  0  0  0  0  0  0
    1.4588    0.2871   -0.0899 H   0  0  0  0  0  0  0  0  0  0  0  0
    1.5126   -1.0031   -1.6049 C   0  0  0  0  0  0  0  0  0  0  0  0
   -2.0318    0.9982   -0.1844 C   0  0  0  0  0  0  0  0  0  0  0  0
   -1.2394   -0.6183    1.3879 O   0  0  0  0  0  0  0  0  0  0  0  0
    2.1639   -0.9282    1.9117 C   0  0  0  0  0  0  0  0  0  0  0  0
    3.4599   -1.3494    1.5880 C   0  0  0  0  0  0  0  0  0  0  0  0
    4.1795   -0.2430    1.1002 C   0  0  0  0  0  0  0  0  0  0  0  0
    3.3264    0.8622    1.1050 C   0  0  0  0  0  0  0  0  0  0  0  0
    2.0846    0.4536    1.6383 C   0  0  0  0  0  0  0  0  0  0  0  0
    1.2543    1.0846    1.8665 H   0  0  0  0  0  0  0  0  0  0  0  0
   -0.6302    1.0365   -0.5227 N   0  0  0  0  0  0  0  0  0  0  0  0
   -2.4710    1.9991   -0.1233 H   0  0  0  0  0  0  0  0  0  0  0  0
    2.3509   -3.0918    0.6375 H   0  0  0  0  0  0  0  0  0  0  0  0
    1.8981   -4.1707   -0.7126 H   0  0  0  0  0  0  0  0  0  0  0  0
    3.5035    1.7793    0.5964 H   0  0  0  0  0  0  0  0  0  0  0  0
    0.3746   -2.8743   -0.0039 N   0  0  0  0  0  0  0  0  0  0  0  0
   -0.0560   -3.4853    1.2486 C   0  0  0  0  0  0  0  0  0  0  0  0
   -0.4669   -3.3891   -1.0860 C   0  0  0  0  0  0  0  0  0  0  0  0
   -0.1949   -4.5686    1.1374 H   0  0  0  0  0  0  0  0  0  0  0  0
    0.6891   -3.3213    2.0239 H   0  0  0  0  0  0  0  0  0  0  0  0
   -0.9937   -3.0340    1.5732 H   0  0  0  0  0  0  0  0  0  0  0  0
   -0.4163   -4.4880   -1.1314 H   0  0  0  0  0  0  0  0  0  0  0  0
   -1.5088   -3.1033   -0.9169 H   0  0  0  0  0  0  0  0  0  0  0  0
   -0.1290   -2.9870   -2.0420 H   0  0  0  0  0  0  0  0  0  0  0  0
   -2.7758    0.1384   -1.2319 C   0  0  0  0  0  0  0  0  0  0  0  0
   -4.1064   -0.3145   -0.7122 C   0  0  0  0  0  0  0  0  0  0  0  0
   -4.2149   -1.5070   -0.0088 C   0  0  0  0  0  0  0  0  0  0  0  0
   -5.4280   -1.9130    0.5140 C   0  0  0  0  0  0  0  0  0  0  0  0
   -6.5545   -1.1292    0.3352 C   0  0  0  0  0  0  0  0  0  0  0  0
   -6.4578    0.0619   -0.3632 C   0  0  0  0  0  0  0  0  0  0  0  0
   -5.2415    0.4667   -0.8819 C   0  0  0  0  0  0  0  0  0  0  0  0
   -2.8908    0.7221   -2.1490 H   0  0  0  0  0  0  0  0  0  0  0  0
   -2.1312   -0.7392   -1.4563 H   0  0  0  0  0  0  0  0  0  0  0  0
   -3.3346   -2.1184    0.1493 H   0  0  0  0  0  0  0  0  0  0  0  0
   -5.4956   -2.8396    1.0665 H   0  0  0  0  0  0  0  0  0  0  0  0
   -7.5037   -1.4427    0.7450 H   0  0  0  0  0  0  0  0  0  0  0  0
   -7.3331    0.6809   -0.4991 H   0  0  0  0  0  0  0  0  0  0  0  0
   -5.1678    1.4017   -1.4193 H   0  0  0  0  0  0  0  0  0  0  0  0
   -0.4793    3.2723   -0.2470 O   0  0  0  0  0  0  0  0  0  0  0  0
   -0.7434    5.5674    0.1309 C   0  0  0  0  0  0  0  0  0  0  0  0
    0.3001    4.4574   -0.0041 C   0  0  0  0  0  0  0  0  0  0  0  0
    1.0928    4.3117    1.2971 C   0  0  0  0  0  0  0  0  0  0  0  0
    1.2337    4.7392   -1.1831 C   0  0  0  0  0  0  0  0  0  0  0  0
   -1.3224    5.6456   -0.7854 H   0  0  0  0  0  0  0  0  0  0  0  0
   -1.4225    5.3370    0.9474 H   0  0  0  0  0  0  0  0  0  0  0  0
   -0.2556    6.5177    0.3275 H   0  0  0  0  0  0  0  0  0  0  0  0
    0.4200    4.0440    2.1090 H   0  0  0  0  0  0  0  0  0  0  0  0
    1.5807    5.2520    1.5380 H   0  0  0  0  0  0  0  0  0  0  0  0
    1.8441    3.5341    1.1885 H   0  0  0  0  0  0  0  0  0  0  0  0
    0.6577    4.8148   -2.1026 H   0  0  0  0  0  0  0  0  0  0  0  0
    1.7628    5.6735   -1.0174 H   0  0  0  0  0  0  0  0  0  0  0  0
    1.9518    3.9294   -1.2830 H   0  0  0  0  0  0  0  0  0  0  0  0
  2  9  2  0  0  0  0
  4 10  1  0  0  0  0
  8 11  4  0  0  0  0
 12 13  4  0  0  0  0
 10 14  4  0  0  0  0
 13 14  4  0  0  0  0
 12 15  1  0  0  0  0
 13 16  1  0  0  0  0
 14 17  1  0  0  0  0
  3 18  1  0  0  0  0
  3 19  1  0  0  0  0
 10 19  4  0  0  0  0
 12 19  1  0  0  0  0
  2 20  1  0  0  0  0
  2 21  4  0  0  0  0
  3 21  1  0  0  0  0
  7 22  1  0  0  0  0
  6 23  1  0  0  0  0
 22 23  4  0  0  0  0
  5 24  1  0  0  0  0
 23 24  4  0  0  0  0
 24 25  4  0  0  0  0
 22 26  4  0  0  0  0
 25 26  4  0  0  0  0
 26 27  1  0  0  0  0
  3 28  1  0  0  0  0
  8 28  4  0  0  0  0
 20 28  1  0  0  0  0
 20 29  1  0  0  0  0
  4 30  1  0  0  0  0
  4 31  1  0  0  0  0
 25 32  1  0  0  0  0
  3 33  1  0  0  0  0
  4 33  1  0  0  0  0
 33 34  1  0  0  0  0
 33 35  1  0  0  0  0
 34 36  1  0  0  0  0
 34 37  1  0  0  0  0
 34 38  1  0  0  0  0
 35 39  1  0  0  0  0
 35 40  1  0  0  0  0
 35 41  1  0  0  0  0
 20 42  1  0  0  0  0
 42 43  1  0  0  0  0
 43 44  4  0  0  0  0
 44 45  4  0  0  0  0
 45 46  4  0  0  0  0
 46 47  4  0  0  0  0
 43 48  4  0  0  0  0
 47 48  4  0  0  0  0
 42 49  1  0  0  0  0
 42 50  1  0  0  0  0
 44 51  1  0  0  0  0
 45 52  1  0  0  0  0
 46 53  1  0  0  0  0
 47 54  1  0  0  0  0
 48 55  1  0  0  0  0
  8 56  1  0  0  0  0
 56 58  1  0  0  0  0
 57 58  1  0  0  0  0
 58 59  1  0  0  0  0
 58 60  1  0  0  0  0
 57 61  1  0  0  0  0
 57 62  1  0  0  0  0
 57 63  1  0  0  0  0
 59 64  1  0  0  0  0
 59 65  1  0  0  0  0
 59 66  1  0  0  0  0
 60 67  1  0  0  0  0
 60 68  1  0  0  0  0
 60 69  1  0  0  0  0
M  END
