 xtb: 6.6.1 (8d0f1dd)
          10152400003D

 91 94  0     0  0            999 V2000
    0.5615   -0.4795   -0.1499 Fe  0  0  0  0  0  0  0  0  0  0  0  0
   -4.0574    0.2556    1.6297 C   0  0  0  0  0  0  0  0  0  0  0  0
   -2.0227   -0.9519    0.0942 Pd  0  0  0  0  0  0  0  0  0  0  0  0
   -0.0276   -3.0921    0.2621 C   0  0  0  0  0  0  0  0  0  0  0  0
    2.2605   -1.6797    1.4561 H   0  0  0  0  0  0  0  0  0  0  0  0
   -0.1848   -1.1489    2.4389 H   0  0  0  0  0  0  0  0  0  0  0  0
   -0.9071    1.2301    1.5954 H   0  0  0  0  0  0  0  0  0  0  0  0
   -2.2922    1.7908   -0.6554 C   0  0  0  0  0  0  0  0  0  0  0  0
   -4.7919    0.7158    2.4859 O   0  0  0  0  0  0  0  0  0  0  0  0
    0.2066   -2.2075   -0.8909 C   0  0  0  0  0  0  0  0  0  0  0  0
   -1.0494    1.7347   -0.8326 O   0  0  0  0  0  0  0  0  0  0  0  0
    0.0252   -0.2913   -2.0177 C   0  0  0  0  0  0  0  0  0  0  0  0
    1.3748   -0.5811   -1.9063 C   0  0  0  0  0  0  0  0  0  0  0  0
    1.5011   -1.7758   -1.1822 C   0  0  0  0  0  0  0  0  0  0  0  0
   -0.3110    0.6449   -2.3928 H   0  0  0  0  0  0  0  0  0  0  0  0
    2.1238    0.0778   -2.2575 H   0  0  0  0  0  0  0  0  0  0  0  0
    2.3834   -2.2349   -0.8137 H   0  0  0  0  0  0  0  0  0  0  0  0
   -0.7675    0.1493   -0.2668 H   0  0  0  0  0  0  0  0  0  0  0  0
   -0.7648   -1.3081   -1.4075 C   0  0  0  0  0  0  0  0  0  0  0  0
   -4.2812    0.6070    0.1229 C   0  0  0  0  0  0  0  0  0  0  0  0
   -3.0580   -0.5062    1.8502 O   0  0  0  0  0  0  0  0  0  0  0  0
    0.0030    0.7324    1.3392 C   0  0  0  0  0  0  0  0  0  0  0  0
    0.4032   -0.5345    1.8008 C   0  0  0  0  0  0  0  0  0  0  0  0
    1.7030   -0.7804    1.3494 C   0  0  0  0  0  0  0  0  0  0  0  0
    2.1035    0.3388    0.5997 C   0  0  0  0  0  0  0  0  0  0  0  0
    1.0430    1.2482    0.5572 C   0  0  0  0  0  0  0  0  0  0  0  0
    0.9840    2.0326   -0.1588 H   0  0  0  0  0  0  0  0  0  0  0  0
   -2.9560    0.6939   -0.4406 N   0  0  0  0  0  0  0  0  0  0  0  0
   -4.8196    1.5577    0.0425 H   0  0  0  0  0  0  0  0  0  0  0  0
    0.6732   -2.7344    1.0117 H   0  0  0  0  0  0  0  0  0  0  0  0
    0.1645   -4.1555    0.0539 H   0  0  0  0  0  0  0  0  0  0  0  0
    3.4967    0.7183   -0.4092 P   0  0  0  0  0  0  0  0  0  0  0  0
    3.2244    1.6939   -1.4726 O   0  0  0  0  0  0  0  0  0  0  0  0
    4.2878   -0.8318   -0.9268 C   0  0  0  0  0  0  0  0  0  0  0  0
    4.5824   -1.0508   -2.2622 C   0  0  0  0  0  0  0  0  0  0  0  0
    5.2336   -2.2097   -2.6475 C   0  0  0  0  0  0  0  0  0  0  0  0
    5.5960   -3.1470   -1.6945 C   0  0  0  0  0  0  0  0  0  0  0  0
    5.3253   -2.9184   -0.3533 C   0  0  0  0  0  0  0  0  0  0  0  0
    4.6805   -1.7579    0.0311 C   0  0  0  0  0  0  0  0  0  0  0  0
    4.7028    1.3388    0.8160 C   0  0  0  0  0  0  0  0  0  0  0  0
    4.3941    1.4632    2.1618 C   0  0  0  0  0  0  0  0  0  0  0  0
    5.3399    1.9588    3.0430 C   0  0  0  0  0  0  0  0  0  0  0  0
    6.5923    2.3293    2.5825 C   0  0  0  0  0  0  0  0  0  0  0  0
    6.9014    2.2110    1.2364 C   0  0  0  0  0  0  0  0  0  0  0  0
    5.9567    1.7166    0.3562 C   0  0  0  0  0  0  0  0  0  0  0  0
    4.2979   -0.3045   -2.9884 H   0  0  0  0  0  0  0  0  0  0  0  0
    5.4603   -2.3829   -3.6885 H   0  0  0  0  0  0  0  0  0  0  0  0
    6.1010   -4.0533   -1.9930 H   0  0  0  0  0  0  0  0  0  0  0  0
    5.6252   -3.6436    0.3888 H   0  0  0  0  0  0  0  0  0  0  0  0
    4.4839   -1.5544    1.0733 H   0  0  0  0  0  0  0  0  0  0  0  0
    3.4129    1.1788    2.5126 H   0  0  0  0  0  0  0  0  0  0  0  0
    5.0992    2.0587    4.0913 H   0  0  0  0  0  0  0  0  0  0  0  0
    7.3279    2.7156    3.2724 H   0  0  0  0  0  0  0  0  0  0  0  0
    7.8766    2.5052    0.8776 H   0  0  0  0  0  0  0  0  0  0  0  0
    6.1741    1.6243   -0.6992 H   0  0  0  0  0  0  0  0  0  0  0  0
   -1.3976   -2.8867    0.7283 N   0  0  0  0  0  0  0  0  0  0  0  0
   -1.5686   -3.2856    2.1221 C   0  0  0  0  0  0  0  0  0  0  0  0
   -2.3276   -3.6727   -0.0855 C   0  0  0  0  0  0  0  0  0  0  0  0
   -1.6583   -4.3752    2.2168 H   0  0  0  0  0  0  0  0  0  0  0  0
   -0.7146   -2.9748    2.7200 H   0  0  0  0  0  0  0  0  0  0  0  0
   -2.4660   -2.8176    2.5273 H   0  0  0  0  0  0  0  0  0  0  0  0
   -2.1571   -4.7511    0.0580 H   0  0  0  0  0  0  0  0  0  0  0  0
   -3.3548   -3.4459    0.2119 H   0  0  0  0  0  0  0  0  0  0  0  0
   -2.1882   -3.4392   -1.1417 H   0  0  0  0  0  0  0  0  0  0  0  0
   -5.0531   -0.5117   -0.6083 C   0  0  0  0  0  0  0  0  0  0  0  0
   -5.3937   -0.0428   -2.0222 C   0  0  0  0  0  0  0  0  0  0  0  0
   -6.3024   -0.9572    0.1653 C   0  0  0  0  0  0  0  0  0  0  0  0
   -6.0351   -2.1812    1.0363 C   0  0  0  0  0  0  0  0  0  0  0  0
   -6.1020    0.7827   -1.9864 H   0  0  0  0  0  0  0  0  0  0  0  0
   -5.8333   -0.8529   -2.6020 H   0  0  0  0  0  0  0  0  0  0  0  0
   -4.4903    0.2965   -2.5269 H   0  0  0  0  0  0  0  0  0  0  0  0
   -4.3552   -1.3764   -0.7026 H   0  0  0  0  0  0  0  0  0  0  0  0
   -7.1025   -1.1931   -0.5411 H   0  0  0  0  0  0  0  0  0  0  0  0
   -6.6449   -0.1379    0.7998 H   0  0  0  0  0  0  0  0  0  0  0  0
   -6.9169   -2.4342    1.6209 H   0  0  0  0  0  0  0  0  0  0  0  0
   -5.7778   -3.0435    0.4187 H   0  0  0  0  0  0  0  0  0  0  0  0
   -5.2224   -1.9814    1.7316 H   0  0  0  0  0  0  0  0  0  0  0  0
   -2.9910    2.9385   -0.6940 O   0  0  0  0  0  0  0  0  0  0  0  0
   -3.4035    5.2398   -0.8259 C   0  0  0  0  0  0  0  0  0  0  0  0
   -2.2908    4.1905   -0.8335 C   0  0  0  0  0  0  0  0  0  0  0  0
   -1.3525    4.3977    0.3573 C   0  0  0  0  0  0  0  0  0  0  0  0
   -1.5173    4.2380   -2.1524 C   0  0  0  0  0  0  0  0  0  0  0  0
   -4.0795    5.0700   -1.6597 H   0  0  0  0  0  0  0  0  0  0  0  0
   -3.9721    5.1678    0.0974 H   0  0  0  0  0  0  0  0  0  0  0  0
   -2.9783    6.2357   -0.9076 H   0  0  0  0  0  0  0  0  0  0  0  0
   -1.9112    4.3074    1.2866 H   0  0  0  0  0  0  0  0  0  0  0  0
   -0.9064    5.3868    0.3070 H   0  0  0  0  0  0  0  0  0  0  0  0
   -0.5654    3.6487    0.3430 H   0  0  0  0  0  0  0  0  0  0  0  0
   -2.1891    4.0353   -2.9836 H   0  0  0  0  0  0  0  0  0  0  0  0
   -1.0787    5.2232   -2.2829 H   0  0  0  0  0  0  0  0  0  0  0  0
   -0.7282    3.4902   -2.1452 H   0  0  0  0  0  0  0  0  0  0  0  0
  2  9  2  0  0  0  0
  4 10  1  0  0  0  0
  8 11  4  0  0  0  0
 12 13  4  0  0  0  0
 10 14  4  0  0  0  0
 13 14  4  0  0  0  0
 12 15  1  0  0  0  0
 13 16  1  0  0  0  0
 14 17  1  0  0  0  0
  3 18  1  0  0  0  0
  3 19  1  0  0  0  0
 10 19  4  0  0  0  0
 12 19  1  0  0  0  0
  2 20  1  0  0  0  0
  2 21  4  0  0  0  0
  3 21  1  0  0  0  0
  7 22  1  0  0  0  0
  6 23  1  0  0  0  0
 22 23  4  0  0  0  0
  5 24  1  0  0  0  0
 23 24  4  0  0  0  0
 24 25  4  0  0  0  0
 22 26  4  0  0  0  0
 25 26  4  0  0  0  0
 26 27  1  0  0  0  0
  3 28  1  0  0  0  0
  8 28  4  0  0  0  0
 20 28  1  0  0  0  0
 20 29  1  0  0  0  0
  4 30  1  0  0  0  0
  4 31  1  0  0  0  0
 25 32  1  0  0  0  0
 32 33  2  0  0  0  0
 32 34  1  0  0  0  0
 34 35  4  0  0  0  0
 35 36  4  0  0  0  0
 36 37  4  0  0  0  0
 37 38  4  0  0  0  0
 34 39  4  0  0  0  0
 38 39  4  0  0  0  0
 32 40  1  0  0  0  0
 40 41  4  0  0  0  0
 41 42  4  0  0  0  0
 42 43  4  0  0  0  0
 43 44  4  0  0  0  0
 40 45  4  0  0  0  0
 44 45  4  0  0  0  0
 35 46  1  0  0  0  0
 36 47  1  0  0  0  0
 37 48  1  0  0  0  0
 38 49  1  0  0  0  0
 39 50  1  0  0  0  0
 41 51  1  0  0  0  0
 42 52  1  0  0  0  0
 43 53  1  0  0  0  0
 44 54  1  0  0  0  0
 45 55  1  0  0  0  0
  3 56  1  0  0  0  0
  4 56  1  0  0  0  0
 56 57  1  0  0  0  0
 56 58  1  0  0  0  0
 57 59  1  0  0  0  0
 57 60  1  0  0  0  0
 57 61  1  0  0  0  0
 58 62  1  0  0  0  0
 58 63  1  0  0  0  0
 58 64  1  0  0  0  0
 20 65  1  0  0  0  0
 65 66  1  0  0  0  0
 65 67  1  0  0  0  0
 67 68  1  0  0  0  0
 66 69  1  0  0  0  0
 66 70  1  0  0  0  0
 66 71  1  0  0  0  0
 65 72  1  0  0  0  0
 67 73  1  0  0  0  0
 67 74  1  0  0  0  0
 68 75  1  0  0  0  0
 68 76  1  0  0  0  0
 68 77  1  0  0  0  0
  8 78  1  0  0  0  0
 78 80  1  0  0  0  0
 79 80  1  0  0  0  0
 80 81  1  0  0  0  0
 80 82  1  0  0  0  0
 79 83  1  0  0  0  0
 79 84  1  0  0  0  0
 79 85  1  0  0  0  0
 81 86  1  0  0  0  0
 81 87  1  0  0  0  0
 81 88  1  0  0  0  0
 82 89  1  0  0  0  0
 82 90  1  0  0  0  0
 82 91  1  0  0  0  0
M  END
