 xtb: 6.6.1 (8d0f1dd)
          10142423223D

 55 56  0     0  0            999 V2000
   -2.0082   -0.3980   -0.0616 Fe  0  0  0  0  0  0  0  0  0  0  0  0
    2.6741   -0.2557    1.5211 C   0  0  0  0  0  0  0  0  0  0  0  0
    0.4668    0.4832   -0.0958 Pd  0  0  0  0  0  0  0  0  0  0  0  0
   -1.8580    2.2769   -0.1243 C   0  0  0  0  0  0  0  0  0  0  0  0
   -4.3896   -1.5312    0.2028 H   0  0  0  0  0  0  0  0  0  0  0  0
   -3.9312    0.7651    1.3927 H   0  0  0  0  0  0  0  0  0  0  0  0
   -1.4688    0.6899    2.4329 H   0  0  0  0  0  0  0  0  0  0  0  0
    1.0678   -2.3375   -0.3287 C   0  0  0  0  0  0  0  0  0  0  0  0
    3.4865   -0.5502    2.3792 O   0  0  0  0  0  0  0  0  0  0  0  0
   -1.9973    1.1977   -1.1253 C   0  0  0  0  0  0  0  0  0  0  0  0
   -0.1609   -2.5335   -0.4443 O   0  0  0  0  0  0  0  0  0  0  0  0
   -1.4885   -0.8373   -1.9004 C   0  0  0  0  0  0  0  0  0  0  0  0
   -2.8700   -0.7840   -1.7510 C   0  0  0  0  0  0  0  0  0  0  0  0
   -3.2015    0.4940   -1.2629 C   0  0  0  0  0  0  0  0  0  0  0  0
   -0.9758   -1.7437   -2.1184 H   0  0  0  0  0  0  0  0  0  0  0  0
   -3.5184   -1.6210   -1.8511 H   0  0  0  0  0  0  0  0  0  0  0  0
   -4.1596    0.8187   -0.9314 H   0  0  0  0  0  0  0  0  0  0  0  0
   -0.5855   -0.6173    0.1963 H   0  0  0  0  0  0  0  0  0  0  0  0
   -0.8895    0.4084   -1.5594 C   0  0  0  0  0  0  0  0  0  0  0  0
    2.8709   -0.7234    0.0382 C   0  0  0  0  0  0  0  0  0  0  0  0
    1.6124    0.4250    1.6902 O   0  0  0  0  0  0  0  0  0  0  0  0
   -1.9492   -0.0804    1.8758 C   0  0  0  0  0  0  0  0  0  0  0  0
   -3.2544   -0.0584    1.3788 C   0  0  0  0  0  0  0  0  0  0  0  0
   -3.5088   -1.2906    0.7472 C   0  0  0  0  0  0  0  0  0  0  0  0
   -2.3605   -2.0763    0.8512 C   0  0  0  0  0  0  0  0  0  0  0  0
   -1.3928   -1.3502    1.5718 C   0  0  0  0  0  0  0  0  0  0  0  0
   -0.4531   -1.7311    1.9076 H   0  0  0  0  0  0  0  0  0  0  0  0
    1.5555   -1.1234   -0.3944 N   0  0  0  0  0  0  0  0  0  0  0  0
    3.6031   -1.5355   -0.0235 H   0  0  0  0  0  0  0  0  0  0  0  0
   -2.4329    1.9253    0.7278 H   0  0  0  0  0  0  0  0  0  0  0  0
   -2.2429    3.2534   -0.4559 H   0  0  0  0  0  0  0  0  0  0  0  0
   -2.1607   -2.9648    0.3031 H   0  0  0  0  0  0  0  0  0  0  0  0
   -0.4436    2.3805    0.2495 N   0  0  0  0  0  0  0  0  0  0  0  0
   -0.2683    2.9072    1.6102 C   0  0  0  0  0  0  0  0  0  0  0  0
    0.2478    3.2307   -0.7205 C   0  0  0  0  0  0  0  0  0  0  0  0
   -1.1888    3.3649    1.9807 H   0  0  0  0  0  0  0  0  0  0  0  0
    0.0439    2.1080    2.2835 H   0  0  0  0  0  0  0  0  0  0  0  0
    0.5153    3.6642    1.6322 H   0  0  0  0  0  0  0  0  0  0  0  0
   -0.1088    4.2697   -0.6628 H   0  0  0  0  0  0  0  0  0  0  0  0
    1.3236    3.2243   -0.5290 H   0  0  0  0  0  0  0  0  0  0  0  0
    0.0633    2.8570   -1.7286 H   0  0  0  0  0  0  0  0  0  0  0  0
    3.3742    0.4899   -0.7764 C   0  0  0  0  0  0  0  0  0  0  0  0
    4.8459    0.7420   -0.4650 C   0  0  0  0  0  0  0  0  0  0  0  0
    3.1467    0.2861   -2.2764 C   0  0  0  0  0  0  0  0  0  0  0  0
    5.4580   -0.0688   -0.8562 H   0  0  0  0  0  0  0  0  0  0  0  0
    5.1822    1.6743   -0.9164 H   0  0  0  0  0  0  0  0  0  0  0  0
    5.0015    0.7956    0.6104 H   0  0  0  0  0  0  0  0  0  0  0  0
    2.7906    1.3813   -0.4577 H   0  0  0  0  0  0  0  0  0  0  0  0
    3.6674   -0.6062   -2.6191 H   0  0  0  0  0  0  0  0  0  0  0  0
    2.0786    0.1674   -2.4858 H   0  0  0  0  0  0  0  0  0  0  0  0
    3.5241    1.1414   -2.8351 H   0  0  0  0  0  0  0  0  0  0  0  0
    2.0028   -3.5183   -0.1286 C   0  0  0  0  0  0  0  0  0  0  0  0
    2.4770   -3.4523    0.8488 H   0  0  0  0  0  0  0  0  0  0  0  0
    1.4162   -4.4309   -0.1842 H   0  0  0  0  0  0  0  0  0  0  0  0
    2.7742   -3.5346   -0.8952 H   0  0  0  0  0  0  0  0  0  0  0  0
  2  9  2  0  0  0  0
  4 10  1  0  0  0  0
  8 11  4  0  0  0  0
 12 13  4  0  0  0  0
 10 14  4  0  0  0  0
 13 14  4  0  0  0  0
 12 15  1  0  0  0  0
 13 16  1  0  0  0  0
 14 17  1  0  0  0  0
  3 18  1  0  0  0  0
  3 19  1  0  0  0  0
 10 19  1  0  0  0  0
 12 19  4  0  0  0  0
  2 20  1  0  0  0  0
  2 21  4  0  0  0  0
  3 21  1  0  0  0  0
  7 22  1  0  0  0  0
  6 23  1  0  0  0  0
 22 23  4  0  0  0  0
  5 24  1  0  0  0  0
 23 24  4  0  0  0  0
 24 25  4  0  0  0  0
 22 26  4  0  0  0  0
 25 26  4  0  0  0  0
 26 27  1  0  0  0  0
  3 28  1  0  0  0  0
  8 28  4  0  0  0  0
 20 28  1  0  0  0  0
 20 29  1  0  0  0  0
  4 30  1  0  0  0  0
  4 31  1  0  0  0  0
 25 32  1  0  0  0  0
  3 33  1  0  0  0  0
  4 33  1  0  0  0  0
 33 34  1  0  0  0  0
 33 35  1  0  0  0  0
 34 36  1  0  0  0  0
 34 37  1  0  0  0  0
 34 38  1  0  0  0  0
 35 39  1  0  0  0  0
 35 40  1  0  0  0  0
 35 41  1  0  0  0  0
 20 42  1  0  0  0  0
 42 43  1  0  0  0  0
 42 44  1  0  0  0  0
 43 45  1  0  0  0  0
 43 46  1  0  0  0  0
 43 47  1  0  0  0  0
 42 48  1  0  0  0  0
 44 49  1  0  0  0  0
 44 50  1  0  0  0  0
 44 51  1  0  0  0  0
  8 52  1  0  0  0  0
 52 53  1  0  0  0  0
 52 54  1  0  0  0  0
 52 55  1  0  0  0  0
M  END
