 xtb: 6.6.1 (8d0f1dd)
          10142418323D

 91 94  0     0  0            999 V2000
   -0.7127   -0.3618    0.1370 Fe  0  0  0  0  0  0  0  0  0  0  0  0
    3.0372    1.5651    2.1243 C   0  0  0  0  0  0  0  0  0  0  0  0
    1.6776   -0.7089    1.1204 Pd  0  0  0  0  0  0  0  0  0  0  0  0
   -0.4567   -2.6987    1.5678 C   0  0  0  0  0  0  0  0  0  0  0  0
   -2.7296   -0.7346    1.8222 H   0  0  0  0  0  0  0  0  0  0  0  0
   -0.3926    0.0881    2.8932 H   0  0  0  0  0  0  0  0  0  0  0  0
    0.6740    1.8473    1.2931 H   0  0  0  0  0  0  0  0  0  0  0  0
    3.7452   -0.3977   -0.7634 C   0  0  0  0  0  0  0  0  0  0  0  0
    3.3258    2.5654    2.7588 O   0  0  0  0  0  0  0  0  0  0  0  0
   -0.3544   -2.2519    0.1607 C   0  0  0  0  0  0  0  0  0  0  0  0
    3.3623   -1.5931   -1.1572 O   0  0  0  0  0  0  0  0  0  0  0  0
    0.2441   -0.8363   -1.4800 C   0  0  0  0  0  0  0  0  0  0  0  0
   -1.1241   -1.0856   -1.6110 C   0  0  0  0  0  0  0  0  0  0  0  0
   -1.5064   -1.9549   -0.5788 C   0  0  0  0  0  0  0  0  0  0  0  0
    0.7624   -0.1694   -2.1285 H   0  0  0  0  0  0  0  0  0  0  0  0
   -1.7403   -0.6167   -2.3344 H   0  0  0  0  0  0  0  0  0  0  0  0
   -2.4875   -2.2601   -0.3105 H   0  0  0  0  0  0  0  0  0  0  0  0
    2.3401   -1.7275   -0.7756 H   0  0  0  0  0  0  0  0  0  0  0  0
    0.7754   -1.5942   -0.4025 C   0  0  0  0  0  0  0  0  0  0  0  0
    3.3679    1.5547    0.5840 C   0  0  0  0  0  0  0  0  0  0  0  0
    2.5024    0.5207    2.6073 O   0  0  0  0  0  0  0  0  0  0  0  0
   -1.1097    1.5195    0.0229 C   0  0  0  0  0  0  0  0  0  0  0  0
   -2.2581    0.7431    0.2580 C   0  0  0  0  0  0  0  0  0  0  0  0
   -2.0682    0.0100    1.4441 C   0  0  0  0  0  0  0  0  0  0  0  0
   -0.8183    0.3742    1.9599 C   0  0  0  0  0  0  0  0  0  0  0  0
   -0.2260    1.3105    1.0869 C   0  0  0  0  0  0  0  0  0  0  0  0
   -0.9686    2.0637   -0.8799 H   0  0  0  0  0  0  0  0  0  0  0  0
    3.0231    0.2590    0.0669 N   0  0  0  0  0  0  0  0  0  0  0  0
    4.4506    1.7140    0.5009 H   0  0  0  0  0  0  0  0  0  0  0  0
   -1.3335   -2.1767    1.9476 H   0  0  0  0  0  0  0  0  0  0  0  0
   -0.6008   -3.7827    1.6871 H   0  0  0  0  0  0  0  0  0  0  0  0
   -3.4547    0.6957   -1.0366 P   0  0  0  0  0  0  0  0  0  0  0  0
   -2.9505    1.1767   -2.3311 O   0  0  0  0  0  0  0  0  0  0  0  0
   -4.8217    1.7247   -0.3920 C   0  0  0  0  0  0  0  0  0  0  0  0
   -5.8509    2.0428   -1.2670 C   0  0  0  0  0  0  0  0  0  0  0  0
   -6.9168    2.8125   -0.8392 C   0  0  0  0  0  0  0  0  0  0  0  0
   -6.9558    3.2664    0.4698 C   0  0  0  0  0  0  0  0  0  0  0  0
   -5.9278    2.9547    1.3440 C   0  0  0  0  0  0  0  0  0  0  0  0
   -4.8610    2.1837    0.9156 C   0  0  0  0  0  0  0  0  0  0  0  0
   -4.2510   -0.9355   -1.0726 C   0  0  0  0  0  0  0  0  0  0  0  0
   -4.8431   -1.4541    0.0713 C   0  0  0  0  0  0  0  0  0  0  0  0
   -5.4857   -2.6767    0.0222 C   0  0  0  0  0  0  0  0  0  0  0  0
   -5.5543   -3.3750   -1.1743 C   0  0  0  0  0  0  0  0  0  0  0  0
   -4.9917   -2.8442   -2.3232 C   0  0  0  0  0  0  0  0  0  0  0  0
   -4.3438   -1.6225   -2.2717 C   0  0  0  0  0  0  0  0  0  0  0  0
   -5.7937    1.6871   -2.2863 H   0  0  0  0  0  0  0  0  0  0  0  0
   -7.7163    3.0607   -1.5218 H   0  0  0  0  0  0  0  0  0  0  0  0
   -7.7867    3.8684    0.8073 H   0  0  0  0  0  0  0  0  0  0  0  0
   -5.9568    3.3163    2.3616 H   0  0  0  0  0  0  0  0  0  0  0  0
   -4.0522    1.9469    1.5910 H   0  0  0  0  0  0  0  0  0  0  0  0
   -4.8006   -0.8902    0.9909 H   0  0  0  0  0  0  0  0  0  0  0  0
   -5.9401   -3.0864    0.9125 H   0  0  0  0  0  0  0  0  0  0  0  0
   -6.0572   -4.3298   -1.2105 H   0  0  0  0  0  0  0  0  0  0  0  0
   -5.0600   -3.3826   -3.2565 H   0  0  0  0  0  0  0  0  0  0  0  0
   -3.9012   -1.1875   -3.1548 H   0  0  0  0  0  0  0  0  0  0  0  0
    0.7260   -2.2430    2.3010 N   0  0  0  0  0  0  0  0  0  0  0  0
    1.8266   -3.2042    2.1428 C   0  0  0  0  0  0  0  0  0  0  0  0
    0.4618   -2.0900    3.7268 C   0  0  0  0  0  0  0  0  0  0  0  0
    1.6175   -4.1297    2.7018 H   0  0  0  0  0  0  0  0  0  0  0  0
    1.9503   -3.4649    1.0897 H   0  0  0  0  0  0  0  0  0  0  0  0
    2.7561   -2.7665    2.5291 H   0  0  0  0  0  0  0  0  0  0  0  0
    0.4186   -3.0647    4.2310 H   0  0  0  0  0  0  0  0  0  0  0  0
    1.2551   -1.4924    4.1772 H   0  0  0  0  0  0  0  0  0  0  0  0
   -0.4926   -1.5941    3.8883 H   0  0  0  0  0  0  0  0  0  0  0  0
    2.6239    2.6761   -0.1931 C   0  0  0  0  0  0  0  0  0  0  0  0
    1.6693    2.0905   -1.2425 C   0  0  0  0  0  0  0  0  0  0  0  0
    3.6269    3.6263   -0.8595 C   0  0  0  0  0  0  0  0  0  0  0  0
    4.3077    4.5395    0.1530 C   0  0  0  0  0  0  0  0  0  0  0  0
    2.2488    1.6688   -2.0628 H   0  0  0  0  0  0  0  0  0  0  0  0
    1.0502    2.8868   -1.6489 H   0  0  0  0  0  0  0  0  0  0  0  0
    1.0204    1.3128   -0.8219 H   0  0  0  0  0  0  0  0  0  0  0  0
    2.0486    3.2697    0.5251 H   0  0  0  0  0  0  0  0  0  0  0  0
    3.0995    4.2385   -1.5956 H   0  0  0  0  0  0  0  0  0  0  0  0
    4.3746    3.0358   -1.3951 H   0  0  0  0  0  0  0  0  0  0  0  0
    5.1257    5.0885   -0.3088 H   0  0  0  0  0  0  0  0  0  0  0  0
    3.5930    5.2552    0.5523 H   0  0  0  0  0  0  0  0  0  0  0  0
    4.6951    3.9651    0.9902 H   0  0  0  0  0  0  0  0  0  0  0  0
    4.8498    0.1499   -1.2521 O   0  0  0  0  0  0  0  0  0  0  0  0
    6.8215    0.4870   -2.4552 C   0  0  0  0  0  0  0  0  0  0  0  0
    5.6933   -0.5179   -2.2172 C   0  0  0  0  0  0  0  0  0  0  0  0
    6.2496   -1.8166   -1.6354 C   0  0  0  0  0  0  0  0  0  0  0  0
    4.9222   -0.7693   -3.5128 C   0  0  0  0  0  0  0  0  0  0  0  0
    6.4153    1.4179   -2.8420 H   0  0  0  0  0  0  0  0  0  0  0  0
    7.3344    0.6985   -1.5208 H   0  0  0  0  0  0  0  0  0  0  0  0
    7.5339    0.0863   -3.1696 H   0  0  0  0  0  0  0  0  0  0  0  0
    6.7340   -1.6182   -0.6816 H   0  0  0  0  0  0  0  0  0  0  0  0
    6.9806   -2.2381   -2.3194 H   0  0  0  0  0  0  0  0  0  0  0  0
    5.4531   -2.5400   -1.4837 H   0  0  0  0  0  0  0  0  0  0  0  0
    4.4835    0.1599   -3.8701 H   0  0  0  0  0  0  0  0  0  0  0  0
    5.6009   -1.1504   -4.2704 H   0  0  0  0  0  0  0  0  0  0  0  0
    4.1295   -1.4952   -3.3543 H   0  0  0  0  0  0  0  0  0  0  0  0
  2  9  2  0  0  0  0
  4 10  1  0  0  0  0
  8 11  1  0  0  0  0
 12 13  4  0  0  0  0
 10 14  4  0  0  0  0
 13 14  4  0  0  0  0
 12 15  1  0  0  0  0
 13 16  1  0  0  0  0
 14 17  1  0  0  0  0
 11 18  1  0  0  0  0
  3 19  1  0  0  0  0
 10 19  4  0  0  0  0
 12 19  4  0  0  0  0
  2 20  1  0  0  0  0
  2 21  4  0  0  0  0
  3 21  1  0  0  0  0
 22 23  4  0  0  0  0
  5 24  1  0  0  0  0
 23 24  4  0  0  0  0
  6 25  1  0  0  0  0
 24 25  4  0  0  0  0
  7 26  1  0  0  0  0
 22 26  4  0  0  0  0
 25 26  4  0  0  0  0
 22 27  1  0  0  0  0
  3 28  1  0  0  0  0
  8 28  2  0  0  0  0
 20 28  1  0  0  0  0
 20 29  1  0  0  0  0
  4 30  1  0  0  0  0
  4 31  1  0  0  0  0
 23 32  1  0  0  0  0
 32 33  2  0  0  0  0
 32 34  1  0  0  0  0
 34 35  4  0  0  0  0
 35 36  4  0  0  0  0
 36 37  4  0  0  0  0
 37 38  4  0  0  0  0
 34 39  4  0  0  0  0
 38 39  4  0  0  0  0
 32 40  1  0  0  0  0
 40 41  4  0  0  0  0
 41 42  4  0  0  0  0
 42 43  4  0  0  0  0
 43 44  4  0  0  0  0
 40 45  4  0  0  0  0
 44 45  4  0  0  0  0
 35 46  1  0  0  0  0
 36 47  1  0  0  0  0
 37 48  1  0  0  0  0
 38 49  1  0  0  0  0
 39 50  1  0  0  0  0
 41 51  1  0  0  0  0
 42 52  1  0  0  0  0
 43 53  1  0  0  0  0
 44 54  1  0  0  0  0
 45 55  1  0  0  0  0
  3 56  1  0  0  0  0
  4 56  1  0  0  0  0
 56 57  1  0  0  0  0
 56 58  1  0  0  0  0
 57 59  1  0  0  0  0
 57 60  1  0  0  0  0
 57 61  1  0  0  0  0
 58 62  1  0  0  0  0
 58 63  1  0  0  0  0
 58 64  1  0  0  0  0
 20 65  1  0  0  0  0
 65 66  1  0  0  0  0
 65 67  1  0  0  0  0
 67 68  1  0  0  0  0
 66 69  1  0  0  0  0
 66 70  1  0  0  0  0
 66 71  1  0  0  0  0
 65 72  1  0  0  0  0
 67 73  1  0  0  0  0
 67 74  1  0  0  0  0
 68 75  1  0  0  0  0
 68 76  1  0  0  0  0
 68 77  1  0  0  0  0
  8 78  1  0  0  0  0
 78 80  1  0  0  0  0
 79 80  1  0  0  0  0
 80 81  1  0  0  0  0
 80 82  1  0  0  0  0
 79 83  1  0  0  0  0
 79 84  1  0  0  0  0
 79 85  1  0  0  0  0
 81 86  1  0  0  0  0
 81 87  1  0  0  0  0
 81 88  1  0  0  0  0
 82 89  1  0  0  0  0
 82 90  1  0  0  0  0
 82 91  1  0  0  0  0
M  END
