 xtb: 6.6.1 (8d0f1dd)
          10152400163D

 65 66  0     0  0            999 V2000
    2.0002    1.0364   -0.0014 Fe  0  0  0  0  0  0  0  0  0  0  0  0
   -1.9369   -1.6929    1.2795 C   0  0  0  0  0  0  0  0  0  0  0  0
    0.3441   -0.9725   -0.2143 Pd  0  0  0  0  0  0  0  0  0  0  0  0
    3.2588   -1.3777   -0.2737 C   0  0  0  0  0  0  0  0  0  0  0  0
    4.1261    0.7204    1.6076 H   0  0  0  0  0  0  0  0  0  0  0  0
    1.7924   -0.4190    2.3713 H   0  0  0  0  0  0  0  0  0  0  0  0
   -0.1316    1.2917    1.8437 H   0  0  0  0  0  0  0  0  0  0  0  0
   -1.6540    1.0939   -0.3866 C   0  0  0  0  0  0  0  0  0  0  0  0
   -2.7632   -1.9890    2.1252 O   0  0  0  0  0  0  0  0  0  0  0  0
    2.8453   -0.2608   -1.1464 C   0  0  0  0  0  0  0  0  0  0  0  0
   -0.6858    1.8997   -0.4195 O   0  0  0  0  0  0  0  0  0  0  0  0
    1.4268    1.3164   -1.8537 C   0  0  0  0  0  0  0  0  0  0  0  0
    2.6396    1.9441   -1.5861 C   0  0  0  0  0  0  0  0  0  0  0  0
    3.5385    0.9605   -1.1362 C   0  0  0  0  0  0  0  0  0  0  0  0
    0.5468    1.8592   -2.1074 H   0  0  0  0  0  0  0  0  0  0  0  0
    2.7888    2.9976   -1.5753 H   0  0  0  0  0  0  0  0  0  0  0  0
    4.5150    1.1268   -0.7453 H   0  0  0  0  0  0  0  0  0  0  0  0
    0.5609    0.8229   -0.1145 H   0  0  0  0  0  0  0  0  0  0  0  0
    1.5085   -0.0909   -1.6049 C   0  0  0  0  0  0  0  0  0  0  0  0
   -2.3910   -1.2087   -0.1370 C   0  0  0  0  0  0  0  0  0  0  0  0
   -0.6739   -1.7181    1.4457 O   0  0  0  0  0  0  0  0  0  0  0  0
    0.8997    1.4319    1.6057 C   0  0  0  0  0  0  0  0  0  0  0  0
    1.9382    0.5235    1.8973 C   0  0  0  0  0  0  0  0  0  0  0  0
    3.1475    1.1376    1.5461 C   0  0  0  0  0  0  0  0  0  0  0  0
    2.8643    2.4130    1.0235 C   0  0  0  0  0  0  0  0  0  0  0  0
    1.4782    2.5847    1.0327 C   0  0  0  0  0  0  0  0  0  0  0  0
    0.9466    3.3411    0.5068 H   0  0  0  0  0  0  0  0  0  0  0  0
   -1.4414   -0.1823   -0.5029 N   0  0  0  0  0  0  0  0  0  0  0  0
   -3.4091   -0.8110   -0.0874 H   0  0  0  0  0  0  0  0  0  0  0  0
    3.6488   -0.8948    0.6194 H   0  0  0  0  0  0  0  0  0  0  0  0
    4.0330   -2.0273   -0.7081 H   0  0  0  0  0  0  0  0  0  0  0  0
    3.5744    3.0702    0.5824 H   0  0  0  0  0  0  0  0  0  0  0  0
    2.0688   -2.1506    0.0868 N   0  0  0  0  0  0  0  0  0  0  0  0
    2.2365   -2.8221    1.3711 C   0  0  0  0  0  0  0  0  0  0  0  0
    1.7918   -3.1676   -0.9295 C   0  0  0  0  0  0  0  0  0  0  0  0
    2.8866   -3.7018    1.2788 H   0  0  0  0  0  0  0  0  0  0  0  0
    2.6894   -2.1477    2.0943 H   0  0  0  0  0  0  0  0  0  0  0  0
    1.2623   -3.1347    1.7476 H   0  0  0  0  0  0  0  0  0  0  0  0
    2.6002   -3.9146   -0.9665 H   0  0  0  0  0  0  0  0  0  0  0  0
    0.8590   -3.6854   -0.6848 H   0  0  0  0  0  0  0  0  0  0  0  0
    1.7081   -2.6992   -1.9117 H   0  0  0  0  0  0  0  0  0  0  0  0
   -2.2956   -2.3574   -1.1570 C   0  0  0  0  0  0  0  0  0  0  0  0
   -2.9457   -3.6590   -0.6885 C   0  0  0  0  0  0  0  0  0  0  0  0
   -4.4299   -3.4952   -0.3840 C   0  0  0  0  0  0  0  0  0  0  0  0
   -1.2167   -2.5374   -1.3578 H   0  0  0  0  0  0  0  0  0  0  0  0
   -2.7548   -2.0286   -2.0945 H   0  0  0  0  0  0  0  0  0  0  0  0
   -2.8118   -4.4147   -1.4695 H   0  0  0  0  0  0  0  0  0  0  0  0
   -2.4428   -4.0149    0.2139 H   0  0  0  0  0  0  0  0  0  0  0  0
   -4.9476   -3.0350   -1.2238 H   0  0  0  0  0  0  0  0  0  0  0  0
   -4.8843   -4.4639   -0.1864 H   0  0  0  0  0  0  0  0  0  0  0  0
   -4.5585   -2.8727    0.4971 H   0  0  0  0  0  0  0  0  0  0  0  0
   -2.9325    1.4947   -0.2483 O   0  0  0  0  0  0  0  0  0  0  0  0
   -4.7546    2.9217    0.1024 C   0  0  0  0  0  0  0  0  0  0  0  0
   -3.2326    2.8874   -0.0456 C   0  0  0  0  0  0  0  0  0  0  0  0
   -2.5623    3.3934    1.2339 C   0  0  0  0  0  0  0  0  0  0  0  0
   -2.7925    3.7143   -1.2553 C   0  0  0  0  0  0  0  0  0  0  0  0
   -5.2234    2.5326   -0.7974 H   0  0  0  0  0  0  0  0  0  0  0  0
   -5.0569    2.3022    0.9423 H   0  0  0  0  0  0  0  0  0  0  0  0
   -5.0915    3.9407    0.2691 H   0  0  0  0  0  0  0  0  0  0  0  0
   -2.8328    2.7512    2.0693 H   0  0  0  0  0  0  0  0  0  0  0  0
   -2.8921    4.4066    1.4461 H   0  0  0  0  0  0  0  0  0  0  0  0
   -1.4822    3.3841    1.1150 H   0  0  0  0  0  0  0  0  0  0  0  0
   -3.2577    3.3268   -2.1588 H   0  0  0  0  0  0  0  0  0  0  0  0
   -3.0888    4.7507   -1.1194 H   0  0  0  0  0  0  0  0  0  0  0  0
   -1.7124    3.6580   -1.3634 H   0  0  0  0  0  0  0  0  0  0  0  0
  2  9  2  0  0  0  0
  4 10  1  0  0  0  0
  8 11  4  0  0  0  0
 12 13  4  0  0  0  0
 10 14  4  0  0  0  0
 13 14  4  0  0  0  0
 12 15  1  0  0  0  0
 13 16  1  0  0  0  0
 14 17  1  0  0  0  0
  3 18  1  0  0  0  0
  3 19  1  0  0  0  0
 10 19  4  0  0  0  0
 12 19  1  0  0  0  0
  2 20  1  0  0  0  0
  2 21  4  0  0  0  0
  3 21  1  0  0  0  0
  7 22  1  0  0  0  0
  6 23  1  0  0  0  0
 22 23  4  0  0  0  0
  5 24  1  0  0  0  0
 23 24  4  0  0  0  0
 24 25  4  0  0  0  0
 22 26  4  0  0  0  0
 25 26  4  0  0  0  0
 26 27  1  0  0  0  0
  3 28  1  0  0  0  0
  8 28  4  0  0  0  0
 20 28  1  0  0  0  0
 20 29  1  0  0  0  0
  4 30  1  0  0  0  0
  4 31  1  0  0  0  0
 25 32  1  0  0  0  0
  3 33  1  0  0  0  0
  4 33  1  0  0  0  0
 33 34  1  0  0  0  0
 33 35  1  0  0  0  0
 34 36  1  0  0  0  0
 34 37  1  0  0  0  0
 34 38  1  0  0  0  0
 35 39  1  0  0  0  0
 35 40  1  0  0  0  0
 35 41  1  0  0  0  0
 20 42  1  0  0  0  0
 42 43  1  0  0  0  0
 43 44  1  0  0  0  0
 42 45  1  0  0  0  0
 42 46  1  0  0  0  0
 43 47  1  0  0  0  0
 43 48  1  0  0  0  0
 44 49  1  0  0  0  0
 44 50  1  0  0  0  0
 44 51  1  0  0  0  0
  8 52  1  0  0  0  0
 52 54  1  0  0  0  0
 53 54  1  0  0  0  0
 54 55  1  0  0  0  0
 54 56  1  0  0  0  0
 53 57  1  0  0  0  0
 53 58  1  0  0  0  0
 53 59  1  0  0  0  0
 55 60  1  0  0  0  0
 55 61  1  0  0  0  0
 55 62  1  0  0  0  0
 56 63  1  0  0  0  0
 56 64  1  0  0  0  0
 56 65  1  0  0  0  0
M  END
