 xtb: 6.6.1 (8d0f1dd)
          10142420223D

 68 69  0     0  0            999 V2000
   -2.3904    0.0472   -0.9050 Fe  0  0  0  0  0  0  0  0  0  0  0  0
    1.0383    1.7622    2.0411 C   0  0  0  0  0  0  0  0  0  0  0  0
   -0.3863   -0.2365    0.6002 Pd  0  0  0  0  0  0  0  0  0  0  0  0
   -2.7052   -2.3294    0.5554 C   0  0  0  0  0  0  0  0  0  0  0  0
   -4.6059    0.8134   -2.0924 H   0  0  0  0  0  0  0  0  0  0  0  0
   -4.7617   -0.1064    0.3678 H   0  0  0  0  0  0  0  0  0  0  0  0
   -2.6849    0.9536    1.7726 H   0  0  0  0  0  0  0  0  0  0  0  0
    2.3756   -0.6638   -0.1600 C   0  0  0  0  0  0  0  0  0  0  0  0
    1.4622    2.5588    2.8610 O   0  0  0  0  0  0  0  0  0  0  0  0
   -2.1848   -1.8710   -0.7544 C   0  0  0  0  0  0  0  0  0  0  0  0
    1.9062   -1.8245   -0.6170 O   0  0  0  0  0  0  0  0  0  0  0  0
   -1.0405   -0.5451   -2.1867 C   0  0  0  0  0  0  0  0  0  0  0  0
   -2.3437   -0.6976   -2.6931 C   0  0  0  0  0  0  0  0  0  0  0  0
   -3.0587   -1.5184   -1.8053 C   0  0  0  0  0  0  0  0  0  0  0  0
   -0.3026    0.0644   -2.6610 H   0  0  0  0  0  0  0  0  0  0  0  0
   -2.7538   -0.1761   -3.5280 H   0  0  0  0  0  0  0  0  0  0  0  0
   -4.1061   -1.7190   -1.8457 H   0  0  0  0  0  0  0  0  0  0  0  0
    0.8853   -1.7273   -0.6723 H   0  0  0  0  0  0  0  0  0  0  0  0
   -0.9015   -1.2886   -0.9808 C   0  0  0  0  0  0  0  0  0  0  0  0
    1.9012    1.5242    0.7369 C   0  0  0  0  0  0  0  0  0  0  0  0
   -0.0173    1.0783    2.1623 O   0  0  0  0  0  0  0  0  0  0  0  0
   -2.1539    1.8714   -0.1475 C   0  0  0  0  0  0  0  0  0  0  0  0
   -2.7964    1.8722   -1.4011 C   0  0  0  0  0  0  0  0  0  0  0  0
   -3.9564    1.0833   -1.2919 C   0  0  0  0  0  0  0  0  0  0  0  0
   -4.0133    0.5698    0.0185 C   0  0  0  0  0  0  0  0  0  0  0  0
   -2.9034    1.0584    0.7323 C   0  0  0  0  0  0  0  0  0  0  0  0
   -1.3293    2.4816    0.1544 H   0  0  0  0  0  0  0  0  0  0  0  0
    1.5474    0.2273    0.2231 N   0  0  0  0  0  0  0  0  0  0  0  0
    2.9483    1.5329    1.0667 H   0  0  0  0  0  0  0  0  0  0  0  0
   -3.7265   -1.9516    0.5974 H   0  0  0  0  0  0  0  0  0  0  0  0
   -2.7299   -3.4226    0.6727 H   0  0  0  0  0  0  0  0  0  0  0  0
   -2.4207    2.2978   -2.3045 H   0  0  0  0  0  0  0  0  0  0  0  0
   -1.9267   -1.7044    1.6283 N   0  0  0  0  0  0  0  0  0  0  0  0
   -0.8322   -2.5777    2.0668 C   0  0  0  0  0  0  0  0  0  0  0  0
   -2.7622   -1.3876    2.7738 C   0  0  0  0  0  0  0  0  0  0  0  0
   -1.2188   -3.4439    2.6281 H   0  0  0  0  0  0  0  0  0  0  0  0
   -0.2797   -2.9503    1.1999 H   0  0  0  0  0  0  0  0  0  0  0  0
   -0.1579   -2.0125    2.7208 H   0  0  0  0  0  0  0  0  0  0  0  0
   -3.1102   -2.2971    3.2846 H   0  0  0  0  0  0  0  0  0  0  0  0
   -2.1894   -0.7872    3.4799 H   0  0  0  0  0  0  0  0  0  0  0  0
   -3.6302   -0.8205    2.4485 H   0  0  0  0  0  0  0  0  0  0  0  0
    1.7289    2.6158   -0.3683 C   0  0  0  0  0  0  0  0  0  0  0  0
    1.1944    3.9157    0.2358 C   0  0  0  0  0  0  0  0  0  0  0  0
    0.8039    2.1361   -1.5043 C   0  0  0  0  0  0  0  0  0  0  0  0
    3.1104    2.9007   -0.9735 C   0  0  0  0  0  0  0  0  0  0  0  0
    0.1839    3.7959    0.6174 H   0  0  0  0  0  0  0  0  0  0  0  0
    1.1907    4.7034   -0.5157 H   0  0  0  0  0  0  0  0  0  0  0  0
    1.8187    4.2261    1.0695 H   0  0  0  0  0  0  0  0  0  0  0  0
    0.4756    2.9943   -2.0872 H   0  0  0  0  0  0  0  0  0  0  0  0
    1.3613    1.4746   -2.1669 H   0  0  0  0  0  0  0  0  0  0  0  0
   -0.0810    1.5969   -1.1444 H   0  0  0  0  0  0  0  0  0  0  0  0
    3.7675    3.3461   -0.2302 H   0  0  0  0  0  0  0  0  0  0  0  0
    3.5691    1.9807   -1.3305 H   0  0  0  0  0  0  0  0  0  0  0  0
    3.0205    3.5912   -1.8104 H   0  0  0  0  0  0  0  0  0  0  0  0
    3.6806   -0.4373   -0.1482 O   0  0  0  0  0  0  0  0  0  0  0  0
    5.9926   -0.7258   -0.2705 C   0  0  0  0  0  0  0  0  0  0  0  0
    4.6603   -1.4360   -0.5140 C   0  0  0  0  0  0  0  0  0  0  0  0
    4.5373   -2.6623    0.3891 C   0  0  0  0  0  0  0  0  0  0  0  0
    4.5167   -1.8091   -1.9892 C   0  0  0  0  0  0  0  0  0  0  0  0
    6.0571    0.1667   -0.8871 H   0  0  0  0  0  0  0  0  0  0  0  0
    6.0696   -0.4283    0.7717 H   0  0  0  0  0  0  0  0  0  0  0  0
    6.8185   -1.3869   -0.5142 H   0  0  0  0  0  0  0  0  0  0  0  0
    4.5574   -2.3569    1.4331 H   0  0  0  0  0  0  0  0  0  0  0  0
    5.3705   -3.3343    0.2045 H   0  0  0  0  0  0  0  0  0  0  0  0
    3.6098   -3.1938    0.1940 H   0  0  0  0  0  0  0  0  0  0  0  0
    4.5473   -0.9124   -2.6046 H   0  0  0  0  0  0  0  0  0  0  0  0
    5.3363   -2.4601   -2.2794 H   0  0  0  0  0  0  0  0  0  0  0  0
    3.5782   -2.3267   -2.1675 H   0  0  0  0  0  0  0  0  0  0  0  0
  2  9  2  0  0  0  0
  4 10  1  0  0  0  0
  8 11  1  0  0  0  0
 12 13  4  0  0  0  0
 10 14  4  0  0  0  0
 13 14  4  0  0  0  0
 12 15  1  0  0  0  0
 13 16  1  0  0  0  0
 14 17  1  0  0  0  0
 11 18  1  0  0  0  0
  3 19  1  0  0  0  0
 10 19  4  0  0  0  0
 12 19  4  0  0  0  0
  2 20  1  0  0  0  0
  2 21  4  0  0  0  0
  3 21  1  0  0  0  0
 22 23  4  0  0  0  0
  5 24  1  0  0  0  0
 23 24  4  0  0  0  0
  6 25  1  0  0  0  0
 24 25  4  0  0  0  0
  7 26  1  0  0  0  0
 22 26  4  0  0  0  0
 25 26  4  0  0  0  0
 22 27  1  0  0  0  0
  3 28  1  0  0  0  0
  8 28  2  0  0  0  0
 20 28  1  0  0  0  0
 20 29  1  0  0  0  0
  4 30  1  0  0  0  0
  4 31  1  0  0  0  0
 23 32  1  0  0  0  0
  3 33  1  0  0  0  0
  4 33  1  0  0  0  0
 33 34  1  0  0  0  0
 33 35  1  0  0  0  0
 34 36  1  0  0  0  0
 34 37  1  0  0  0  0
 34 38  1  0  0  0  0
 35 39  1  0  0  0  0
 35 40  1  0  0  0  0
 35 41  1  0  0  0  0
 20 42  1  0  0  0  0
 42 43  1  0  0  0  0
 42 44  1  0  0  0  0
 42 45  1  0  0  0  0
 43 46  1  0  0  0  0
 43 47  1  0  0  0  0
 43 48  1  0  0  0  0
 44 49  1  0  0  0  0
 44 50  1  0  0  0  0
 44 51  1  0  0  0  0
 45 52  1  0  0  0  0
 45 53  1  0  0  0  0
 45 54  1  0  0  0  0
  8 55  1  0  0  0  0
 55 57  1  0  0  0  0
 56 57  1  0  0  0  0
 57 58  1  0  0  0  0
 57 59  1  0  0  0  0
 56 60  1  0  0  0  0
 56 61  1  0  0  0  0
 56 62  1  0  0  0  0
 58 63  1  0  0  0  0
 58 64  1  0  0  0  0
 58 65  1  0  0  0  0
 59 66  1  0  0  0  0
 59 67  1  0  0  0  0
 59 68  1  0  0  0  0
M  END
