 xtb: 6.6.1 (8d0f1dd)
          10142421283D

 71 75  0     0  0            999 V2000
    0.9027   -2.1513   -0.2234 Fe  0  0  0  0  0  0  0  0  0  0  0  0
   -3.0920    0.1267    1.7686 C   0  0  0  0  0  0  0  0  0  0  0  0
   -1.5153   -1.0690   -0.2256 Pd  0  0  0  0  0  0  0  0  0  0  0  0
   -0.6665   -3.4658   -1.0375 C   0  0  0  0  0  0  0  0  0  0  0  0
    1.4218   -4.7434    0.2082 H   0  0  0  0  0  0  0  0  0  0  0  0
   -0.6552   -3.6511    1.4874 H   0  0  0  0  0  0  0  0  0  0  0  0
    0.0747   -1.2683    2.3415 H   0  0  0  0  0  0  0  0  0  0  0  0
   -0.3383    1.1542    0.8814 C   0  0  0  0  0  0  0  0  0  0  0  0
   -3.8450    0.4200    2.6789 O   0  0  0  0  0  0  0  0  0  0  0  0
    0.0890   -2.6496   -1.8987 C   0  0  0  0  0  0  0  0  0  0  0  0
    0.7351    0.4882    0.7704 O   0  0  0  0  0  0  0  0  0  0  0  0
    1.1403   -0.7161   -1.5456 C   0  0  0  0  0  0  0  0  0  0  0  0
    2.1224   -1.7048   -1.6580 C   0  0  0  0  0  0  0  0  0  0  0  0
    1.4833   -2.9249   -1.8702 C   0  0  0  0  0  0  0  0  0  0  0  0
    1.3719    0.2825   -1.2641 H   0  0  0  0  0  0  0  0  0  0  0  0
    3.1526   -1.5539   -1.4479 H   0  0  0  0  0  0  0  0  0  0  0  0
    1.9286   -3.8906   -1.8755 H   0  0  0  0  0  0  0  0  0  0  0  0
    0.2688   -0.8908    0.2518 H   0  0  0  0  0  0  0  0  0  0  0  0
   -0.1630   -1.2505   -1.7015 C   0  0  0  0  0  0  0  0  0  0  0  0
   -2.7130    1.2055    0.6895 C   0  0  0  0  0  0  0  0  0  0  0  0
   -2.5133   -0.9954    1.6072 O   0  0  0  0  0  0  0  0  0  0  0  0
    0.6710   -1.9264    1.7488 C   0  0  0  0  0  0  0  0  0  0  0  0
    0.3045   -3.2100    1.3381 C   0  0  0  0  0  0  0  0  0  0  0  0
    1.3986   -3.7892    0.6773 C   0  0  0  0  0  0  0  0  0  0  0  0
    2.4500   -2.8608    0.6729 C   0  0  0  0  0  0  0  0  0  0  0  0
    1.9914   -1.6971    1.2925 C   0  0  0  0  0  0  0  0  0  0  0  0
    2.4823   -0.7562    1.2736 H   0  0  0  0  0  0  0  0  0  0  0  0
   -1.4017    0.8008    0.2430 N   0  0  0  0  0  0  0  0  0  0  0  0
   -2.6568    2.1880    1.1729 H   0  0  0  0  0  0  0  0  0  0  0  0
   -0.3141   -4.4901   -0.9142 H   0  0  0  0  0  0  0  0  0  0  0  0
    3.3744   -2.9753    0.1626 H   0  0  0  0  0  0  0  0  0  0  0  0
   -1.7320   -3.1112   -0.5115 O   0  0  0  0  0  0  0  0  0  0  0  0
   -3.7571    1.2662   -0.4566 C   0  0  0  0  0  0  0  0  0  0  0  0
   -4.3619   -0.1129   -0.7728 C   0  0  0  0  0  0  0  0  0  0  0  0
   -3.0879    1.8150   -1.7227 C   0  0  0  0  0  0  0  0  0  0  0  0
   -4.8837    2.1959    0.0023 C   0  0  0  0  0  0  0  0  0  0  0  0
   -3.5876   -0.8229   -1.1315 H   0  0  0  0  0  0  0  0  0  0  0  0
   -5.1118   -0.0088   -1.5568 H   0  0  0  0  0  0  0  0  0  0  0  0
   -4.8464   -0.5277    0.1121 H   0  0  0  0  0  0  0  0  0  0  0  0
   -3.8327    1.9845   -2.4982 H   0  0  0  0  0  0  0  0  0  0  0  0
   -2.5820    2.7552   -1.5119 H   0  0  0  0  0  0  0  0  0  0  0  0
   -2.3429    1.1048   -2.0945 H   0  0  0  0  0  0  0  0  0  0  0  0
   -5.2663    1.8623    0.9643 H   0  0  0  0  0  0  0  0  0  0  0  0
   -4.5199    3.2154    0.1134 H   0  0  0  0  0  0  0  0  0  0  0  0
   -5.6982    2.1974   -0.7197 H   0  0  0  0  0  0  0  0  0  0  0  0
   -0.3777    2.2520    1.6665 O   0  0  0  0  0  0  0  0  0  0  0  0
    0.8280    2.6190    2.3071 C   0  0  0  0  0  0  0  0  0  0  0  0
    1.9311    3.1158    1.3390 C   0  0  0  0  0  0  0  0  0  0  0  0
    2.9585    2.0619    1.0194 C   0  0  0  0  0  0  0  0  0  0  0  0
    3.7765    1.3616    1.8794 C   0  0  0  0  0  0  0  0  0  0  0  0
    4.6222    0.3899    1.3558 C   0  0  0  0  0  0  0  0  0  0  0  0
    4.6487    0.1336   -0.0064 C   0  0  0  0  0  0  0  0  0  0  0  0
    3.8475    0.8534   -0.8790 C   0  0  0  0  0  0  0  0  0  0  0  0
    3.0010    1.8181   -0.3603 C   0  0  0  0  0  0  0  0  0  0  0  0
    2.0200    2.6749   -1.0090 C   0  0  0  0  0  0  0  0  0  0  0  0
    1.6366    2.7729   -2.3367 C   0  0  0  0  0  0  0  0  0  0  0  0
    0.6168    3.6497   -2.6680 C   0  0  0  0  0  0  0  0  0  0  0  0
   -0.0050    4.4160   -1.6943 C   0  0  0  0  0  0  0  0  0  0  0  0
    0.3762    4.3228   -0.3624 C   0  0  0  0  0  0  0  0  0  0  0  0
    1.3884    3.4499   -0.0263 C   0  0  0  0  0  0  0  0  0  0  0  0
    1.2098    1.7674    2.8815 H   0  0  0  0  0  0  0  0  0  0  0  0
    0.5261    3.4158    2.9892 H   0  0  0  0  0  0  0  0  0  0  0  0
    2.4114    3.9875    1.7958 H   0  0  0  0  0  0  0  0  0  0  0  0
    3.7585    1.5517    2.9424 H   0  0  0  0  0  0  0  0  0  0  0  0
    5.2583   -0.1764    2.0188 H   0  0  0  0  0  0  0  0  0  0  0  0
    5.3113   -0.6289   -0.3894 H   0  0  0  0  0  0  0  0  0  0  0  0
    3.8817    0.6690   -1.9415 H   0  0  0  0  0  0  0  0  0  0  0  0
    2.1129    2.1720   -3.0967 H   0  0  0  0  0  0  0  0  0  0  0  0
    0.2968    3.7328   -3.6959 H   0  0  0  0  0  0  0  0  0  0  0  0
   -0.8007    5.0906   -1.9744 H   0  0  0  0  0  0  0  0  0  0  0  0
   -0.1214    4.9116    0.3935 H   0  0  0  0  0  0  0  0  0  0  0  0
  2  9  2  0  0  0  0
  4 10  1  0  0  0  0
  8 11  4  0  0  0  0
 12 13  4  0  0  0  0
 10 14  1  0  0  0  0
 13 14  4  0  0  0  0
 12 15  1  0  0  0  0
 13 16  1  0  0  0  0
 14 17  1  0  0  0  0
  3 18  1  0  0  0  0
  3 19  1  0  0  0  0
 10 19  1  0  0  0  0
 12 19  4  0  0  0  0
  2 20  1  0  0  0  0
  2 21  4  0  0  0  0
  3 21  1  0  0  0  0
  7 22  1  0  0  0  0
  6 23  1  0  0  0  0
 22 23  4  0  0  0  0
  5 24  1  0  0  0  0
 23 24  4  0  0  0  0
 24 25  4  0  0  0  0
 22 26  4  0  0  0  0
 25 26  4  0  0  0  0
 26 27  1  0  0  0  0
  3 28  1  0  0  0  0
  8 28  4  0  0  0  0
 20 28  1  0  0  0  0
 20 29  1  0  0  0  0
  4 30  1  0  0  0  0
 25 31  1  0  0  0  0
  3 32  1  0  0  0  0
  4 32  2  0  0  0  0
 20 33  1  0  0  0  0
 33 34  1  0  0  0  0
 33 35  1  0  0  0  0
 33 36  1  0  0  0  0
 34 37  1  0  0  0  0
 34 38  1  0  0  0  0
 34 39  1  0  0  0  0
 35 40  1  0  0  0  0
 35 41  1  0  0  0  0
 35 42  1  0  0  0  0
 36 43  1  0  0  0  0
 36 44  1  0  0  0  0
 36 45  1  0  0  0  0
  8 46  1  0  0  0  0
 46 47  1  0  0  0  0
 47 48  1  0  0  0  0
 48 49  1  0  0  0  0
 49 50  4  0  0  0  0
 50 51  4  0  0  0  0
 51 52  4  0  0  0  0
 52 53  4  0  0  0  0
 49 54  4  0  0  0  0
 53 54  4  0  0  0  0
 54 55  1  0  0  0  0
 55 56  4  0  0  0  0
 56 57  4  0  0  0  0
 57 58  4  0  0  0  0
 58 59  4  0  0  0  0
 48 60  1  0  0  0  0
 55 60  4  0  0  0  0
 59 60  4  0  0  0  0
 47 61  1  0  0  0  0
 47 62  1  0  0  0  0
 48 63  1  0  0  0  0
 50 64  1  0  0  0  0
 51 65  1  0  0  0  0
 52 66  1  0  0  0  0
 53 67  1  0  0  0  0
 56 68  1  0  0  0  0
 57 69  1  0  0  0  0
 58 70  1  0  0  0  0
 59 71  1  0  0  0  0
M  END
