 xtb: 6.6.1 (8d0f1dd)
          10142418093D

 55 56  0     0  0            999 V2000
   -1.5184    0.9766   -0.3384 Fe  0  0  0  0  0  0  0  0  0  0  0  0
    2.3791   -0.1276    1.8527 C   0  0  0  0  0  0  0  0  0  0  0  0
    0.1507   -0.8221    0.2523 Pd  0  0  0  0  0  0  0  0  0  0  0  0
   -2.7964   -1.4761   -0.2505 C   0  0  0  0  0  0  0  0  0  0  0  0
   -3.0911    3.0780   -0.4691 H   0  0  0  0  0  0  0  0  0  0  0  0
   -3.7960    1.0862    1.0977 H   0  0  0  0  0  0  0  0  0  0  0  0
   -1.5589    0.2521    2.4059 H   0  0  0  0  0  0  0  0  0  0  0  0
    2.3255   -1.4344   -1.3900 C   0  0  0  0  0  0  0  0  0  0  0  0
    3.1764    0.1835    2.7183 O   0  0  0  0  0  0  0  0  0  0  0  0
   -2.1593   -0.6005   -1.2629 C   0  0  0  0  0  0  0  0  0  0  0  0
    1.4076   -2.0433   -2.1097 O   0  0  0  0  0  0  0  0  0  0  0  0
   -0.5406    0.7834   -2.0104 C   0  0  0  0  0  0  0  0  0  0  0  0
   -1.7743    1.4294   -2.2011 C   0  0  0  0  0  0  0  0  0  0  0  0
   -2.7851    0.5753   -1.7281 C   0  0  0  0  0  0  0  0  0  0  0  0
    0.3993    1.2429   -2.2318 H   0  0  0  0  0  0  0  0  0  0  0  0
   -1.9067    2.4388   -2.5172 H   0  0  0  0  0  0  0  0  0  0  0  0
   -3.8140    0.8317   -1.6100 H   0  0  0  0  0  0  0  0  0  0  0  0
    0.4349   -1.5437   -1.8675 H   0  0  0  0  0  0  0  0  0  0  0  0
   -0.7538   -0.5280   -1.4912 C   0  0  0  0  0  0  0  0  0  0  0  0
    2.7521    0.2348    0.3461 C   0  0  0  0  0  0  0  0  0  0  0  0
    1.2885   -0.7411    2.0266 O   0  0  0  0  0  0  0  0  0  0  0  0
   -0.5563    1.7799    1.2065 C   0  0  0  0  0  0  0  0  0  0  0  0
   -1.0485    2.7403    0.3019 C   0  0  0  0  0  0  0  0  0  0  0  0
   -2.4420    2.5656    0.2025 C   0  0  0  0  0  0  0  0  0  0  0  0
   -2.8066    1.4795    1.0218 C   0  0  0  0  0  0  0  0  0  0  0  0
   -1.6448    0.9952    1.6459 C   0  0  0  0  0  0  0  0  0  0  0  0
    0.4222    1.7246    1.6318 H   0  0  0  0  0  0  0  0  0  0  0  0
    1.9592   -0.6093   -0.4852 N   0  0  0  0  0  0  0  0  0  0  0  0
    3.8321    0.0755    0.2314 H   0  0  0  0  0  0  0  0  0  0  0  0
   -3.5169   -0.8321    0.2531 H   0  0  0  0  0  0  0  0  0  0  0  0
   -3.3245   -2.3470   -0.6642 H   0  0  0  0  0  0  0  0  0  0  0  0
   -0.4708    3.4135   -0.2910 H   0  0  0  0  0  0  0  0  0  0  0  0
   -1.7837   -1.9008    0.7288 N   0  0  0  0  0  0  0  0  0  0  0  0
   -1.1840   -3.1842    0.3323 C   0  0  0  0  0  0  0  0  0  0  0  0
   -2.3799   -2.0699    2.0465 C   0  0  0  0  0  0  0  0  0  0  0  0
   -1.9046   -4.0076    0.4593 H   0  0  0  0  0  0  0  0  0  0  0  0
   -0.8828   -3.1578   -0.7177 H   0  0  0  0  0  0  0  0  0  0  0  0
   -0.3092   -3.3896    0.9628 H   0  0  0  0  0  0  0  0  0  0  0  0
   -3.0404   -2.9478    2.0767 H   0  0  0  0  0  0  0  0  0  0  0  0
   -1.5905   -2.2022    2.7864 H   0  0  0  0  0  0  0  0  0  0  0  0
   -2.9704   -1.1949    2.3048 H   0  0  0  0  0  0  0  0  0  0  0  0
    2.3876    1.6798   -0.0727 C   0  0  0  0  0  0  0  0  0  0  0  0
    2.8391    2.7138    0.9523 C   0  0  0  0  0  0  0  0  0  0  0  0
    3.0109    1.9983   -1.4345 C   0  0  0  0  0  0  0  0  0  0  0  0
    3.9252    2.7532    0.9901 H   0  0  0  0  0  0  0  0  0  0  0  0
    2.4632    3.6988    0.6837 H   0  0  0  0  0  0  0  0  0  0  0  0
    2.4929    2.4657    1.9509 H   0  0  0  0  0  0  0  0  0  0  0  0
    1.2886    1.7022   -0.1995 H   0  0  0  0  0  0  0  0  0  0  0  0
    4.0973    2.0058   -1.3696 H   0  0  0  0  0  0  0  0  0  0  0  0
    2.7146    1.2648   -2.1827 H   0  0  0  0  0  0  0  0  0  0  0  0
    2.6850    2.9805   -1.7707 H   0  0  0  0  0  0  0  0  0  0  0  0
    3.7526   -1.7438   -1.7423 C   0  0  0  0  0  0  0  0  0  0  0  0
    4.2852   -2.1000   -0.8625 H   0  0  0  0  0  0  0  0  0  0  0  0
    3.7691   -2.5077   -2.5139 H   0  0  0  0  0  0  0  0  0  0  0  0
    4.2507   -0.8482   -2.1088 H   0  0  0  0  0  0  0  0  0  0  0  0
  2  9  2  0  0  0  0
  4 10  1  0  0  0  0
  8 11  1  0  0  0  0
 12 13  4  0  0  0  0
 10 14  4  0  0  0  0
 13 14  4  0  0  0  0
 12 15  1  0  0  0  0
 13 16  1  0  0  0  0
 14 17  1  0  0  0  0
 11 18  1  0  0  0  0
  3 19  1  0  0  0  0
 10 19  4  0  0  0  0
 12 19  4  0  0  0  0
  2 20  1  0  0  0  0
  2 21  4  0  0  0  0
  3 21  1  0  0  0  0
 22 23  4  0  0  0  0
  5 24  1  0  0  0  0
 23 24  4  0  0  0  0
  6 25  1  0  0  0  0
 24 25  4  0  0  0  0
  7 26  1  0  0  0  0
 22 26  4  0  0  0  0
 25 26  4  0  0  0  0
 22 27  1  0  0  0  0
  3 28  1  0  0  0  0
  8 28  2  0  0  0  0
 20 28  1  0  0  0  0
 20 29  1  0  0  0  0
  4 30  1  0  0  0  0
  4 31  1  0  0  0  0
 23 32  1  0  0  0  0
  3 33  1  0  0  0  0
  4 33  1  0  0  0  0
 33 34  1  0  0  0  0
 33 35  1  0  0  0  0
 34 36  1  0  0  0  0
 34 37  1  0  0  0  0
 34 38  1  0  0  0  0
 35 39  1  0  0  0  0
 35 40  1  0  0  0  0
 35 41  1  0  0  0  0
 20 42  1  0  0  0  0
 42 43  1  0  0  0  0
 42 44  1  0  0  0  0
 43 45  1  0  0  0  0
 43 46  1  0  0  0  0
 43 47  1  0  0  0  0
 42 48  1  0  0  0  0
 44 49  1  0  0  0  0
 44 50  1  0  0  0  0
 44 51  1  0  0  0  0
  8 52  1  0  0  0  0
 52 53  1  0  0  0  0
 52 54  1  0  0  0  0
 52 55  1  0  0  0  0
M  END
