 xtb: 6.6.1 (8d0f1dd)
          10142419213D

 65 66  0     0  0            999 V2000
   -2.2414    0.5273   -0.7437 Fe  0  0  0  0  0  0  0  0  0  0  0  0
    0.8105    0.8899    2.6088 C   0  0  0  0  0  0  0  0  0  0  0  0
   -0.3538   -0.6380    0.5335 Pd  0  0  0  0  0  0  0  0  0  0  0  0
   -2.7017   -2.1657   -0.5512 C   0  0  0  0  0  0  0  0  0  0  0  0
   -4.1614    2.1079   -1.6006 H   0  0  0  0  0  0  0  0  0  0  0  0
   -4.8027    0.0860   -0.0470 H   0  0  0  0  0  0  0  0  0  0  0  0
   -2.9576   -0.0256    1.9443 H   0  0  0  0  0  0  0  0  0  0  0  0
    2.2845   -0.3708   -0.2569 C   0  0  0  0  0  0  0  0  0  0  0  0
    0.9596    1.5936    3.5920 O   0  0  0  0  0  0  0  0  0  0  0  0
   -2.0966   -1.2311   -1.5331 C   0  0  0  0  0  0  0  0  0  0  0  0
    1.9464   -1.3199   -1.1214 O   0  0  0  0  0  0  0  0  0  0  0  0
   -0.8041    0.5484   -2.0472 C   0  0  0  0  0  0  0  0  0  0  0  0
   -2.0575    0.7395   -2.6561 C   0  0  0  0  0  0  0  0  0  0  0  0
   -2.8711   -0.3608   -2.3280 C   0  0  0  0  0  0  0  0  0  0  0  0
   -0.0240    1.2805   -2.0547 H   0  0  0  0  0  0  0  0  0  0  0  0
   -2.3771    1.6233   -3.1595 H   0  0  0  0  0  0  0  0  0  0  0  0
   -3.9172   -0.4416   -2.5211 H   0  0  0  0  0  0  0  0  0  0  0  0
    0.9007   -1.2279   -1.2518 H   0  0  0  0  0  0  0  0  0  0  0  0
   -0.7706   -0.7188   -1.3984 C   0  0  0  0  0  0  0  0  0  0  0  0
    1.5609    1.3427    1.2817 C   0  0  0  0  0  0  0  0  0  0  0  0
    0.1225   -0.1690    2.5439 O   0  0  0  0  0  0  0  0  0  0  0  0
   -2.0263    1.6448    0.8813 C   0  0  0  0  0  0  0  0  0  0  0  0
   -2.4361    2.3840   -0.2456 C   0  0  0  0  0  0  0  0  0  0  0  0
   -3.6458    1.8321   -0.7098 C   0  0  0  0  0  0  0  0  0  0  0  0
   -3.9696    0.7348    0.1110 C   0  0  0  0  0  0  0  0  0  0  0  0
   -2.9759    0.6222    1.0980 C   0  0  0  0  0  0  0  0  0  0  0  0
   -1.2354    1.8768    1.5603 H   0  0  0  0  0  0  0  0  0  0  0  0
    1.3623    0.3179    0.3011 N   0  0  0  0  0  0  0  0  0  0  0  0
    2.6202    1.4671    1.5369 H   0  0  0  0  0  0  0  0  0  0  0  0
   -3.6406   -1.6908   -0.2670 H   0  0  0  0  0  0  0  0  0  0  0  0
   -2.9086   -3.1746   -0.9363 H   0  0  0  0  0  0  0  0  0  0  0  0
   -1.8888    3.1569   -0.7371 H   0  0  0  0  0  0  0  0  0  0  0  0
   -1.8278   -2.2341    0.6320 N   0  0  0  0  0  0  0  0  0  0  0  0
   -0.8270   -3.2984    0.4630 C   0  0  0  0  0  0  0  0  0  0  0  0
   -2.5870   -2.5209    1.8429 C   0  0  0  0  0  0  0  0  0  0  0  0
   -1.3006   -4.2906    0.5297 H   0  0  0  0  0  0  0  0  0  0  0  0
   -0.3489   -3.2169   -0.5153 H   0  0  0  0  0  0  0  0  0  0  0  0
   -0.0700   -3.2220    1.2544 H   0  0  0  0  0  0  0  0  0  0  0  0
   -2.8981   -3.5738    1.8791 H   0  0  0  0  0  0  0  0  0  0  0  0
   -1.9690   -2.3045    2.7150 H   0  0  0  0  0  0  0  0  0  0  0  0
   -3.4843   -1.9090    1.8795 H   0  0  0  0  0  0  0  0  0  0  0  0
    0.9784    2.6572    0.7378 C   0  0  0  0  0  0  0  0  0  0  0  0
    1.9950    3.5481    0.0220 C   0  0  0  0  0  0  0  0  0  0  0  0
    2.5008    2.9596   -1.2890 C   0  0  0  0  0  0  0  0  0  0  0  0
    0.5708    3.2232    1.5781 H   0  0  0  0  0  0  0  0  0  0  0  0
    0.1678    2.3901    0.0439 H   0  0  0  0  0  0  0  0  0  0  0  0
    1.5182    4.5102   -0.1829 H   0  0  0  0  0  0  0  0  0  0  0  0
    2.8411    3.7358    0.6858 H   0  0  0  0  0  0  0  0  0  0  0  0
    1.6703    2.7520   -1.9615 H   0  0  0  0  0  0  0  0  0  0  0  0
    3.1728    3.6579   -1.7840 H   0  0  0  0  0  0  0  0  0  0  0  0
    3.0423    2.0361   -1.1102 H   0  0  0  0  0  0  0  0  0  0  0  0
    3.5640   -0.0897   -0.0485 O   0  0  0  0  0  0  0  0  0  0  0  0
    5.8940   -0.2196   -0.0270 C   0  0  0  0  0  0  0  0  0  0  0  0
    4.6415   -0.8681   -0.6179 C   0  0  0  0  0  0  0  0  0  0  0  0
    4.5344   -2.3260   -0.1731 C   0  0  0  0  0  0  0  0  0  0  0  0
    4.6465   -0.7450   -2.1415 C   0  0  0  0  0  0  0  0  0  0  0  0
    5.9406    0.8277   -0.3134 H   0  0  0  0  0  0  0  0  0  0  0  0
    5.8659   -0.2777    1.0578 H   0  0  0  0  0  0  0  0  0  0  0  0
    6.7832   -0.7271   -0.3882 H   0  0  0  0  0  0  0  0  0  0  0  0
    4.4429   -2.3760    0.9100 H   0  0  0  0  0  0  0  0  0  0  0  0
    5.4277   -2.8653   -0.4749 H   0  0  0  0  0  0  0  0  0  0  0  0
    3.6684   -2.8033   -0.6238 H   0  0  0  0  0  0  0  0  0  0  0  0
    4.6702    0.3034   -2.4314 H   0  0  0  0  0  0  0  0  0  0  0  0
    5.5281   -1.2385   -2.5405 H   0  0  0  0  0  0  0  0  0  0  0  0
    3.7615   -1.2078   -2.5692 H   0  0  0  0  0  0  0  0  0  0  0  0
  2  9  2  0  0  0  0
  4 10  1  0  0  0  0
  8 11  1  0  0  0  0
 12 13  4  0  0  0  0
 10 14  4  0  0  0  0
 13 14  4  0  0  0  0
 12 15  1  0  0  0  0
 13 16  1  0  0  0  0
 14 17  1  0  0  0  0
 11 18  1  0  0  0  0
  3 19  1  0  0  0  0
 10 19  4  0  0  0  0
 12 19  4  0  0  0  0
  2 20  1  0  0  0  0
  2 21  4  0  0  0  0
  3 21  1  0  0  0  0
 22 23  4  0  0  0  0
  5 24  1  0  0  0  0
 23 24  4  0  0  0  0
  6 25  1  0  0  0  0
 24 25  4  0  0  0  0
  7 26  1  0  0  0  0
 22 26  4  0  0  0  0
 25 26  4  0  0  0  0
 22 27  1  0  0  0  0
  3 28  1  0  0  0  0
  8 28  2  0  0  0  0
 20 28  1  0  0  0  0
 20 29  1  0  0  0  0
  4 30  1  0  0  0  0
  4 31  1  0  0  0  0
 23 32  1  0  0  0  0
  3 33  1  0  0  0  0
  4 33  1  0  0  0  0
 33 34  1  0  0  0  0
 33 35  1  0  0  0  0
 34 36  1  0  0  0  0
 34 37  1  0  0  0  0
 34 38  1  0  0  0  0
 35 39  1  0  0  0  0
 35 40  1  0  0  0  0
 35 41  1  0  0  0  0
 20 42  1  0  0  0  0
 42 43  1  0  0  0  0
 43 44  1  0  0  0  0
 42 45  1  0  0  0  0
 42 46  1  0  0  0  0
 43 47  1  0  0  0  0
 43 48  1  0  0  0  0
 44 49  1  0  0  0  0
 44 50  1  0  0  0  0
 44 51  1  0  0  0  0
  8 52  1  0  0  0  0
 52 54  1  0  0  0  0
 53 54  1  0  0  0  0
 54 55  1  0  0  0  0
 54 56  1  0  0  0  0
 53 57  1  0  0  0  0
 53 58  1  0  0  0  0
 53 59  1  0  0  0  0
 55 60  1  0  0  0  0
 55 61  1  0  0  0  0
 55 62  1  0  0  0  0
 56 63  1  0  0  0  0
 56 64  1  0  0  0  0
 56 65  1  0  0  0  0
M  END
