 xtb: 6.6.1 (8d0f1dd)
          10142422103D

 68 69  0     0  0            999 V2000
    1.8740    0.8764   -0.0795 Fe  0  0  0  0  0  0  0  0  0  0  0  0
   -2.0867   -1.6375    1.5442 C   0  0  0  0  0  0  0  0  0  0  0  0
    0.1619   -1.1226   -0.0985 Pd  0  0  0  0  0  0  0  0  0  0  0  0
    3.0544   -1.5748   -0.2024 C   0  0  0  0  0  0  0  0  0  0  0  0
    4.0446    0.6741    1.4426 H   0  0  0  0  0  0  0  0  0  0  0  0
    1.7877   -0.5345    2.3129 H   0  0  0  0  0  0  0  0  0  0  0  0
   -0.2220    1.0876    1.8258 H   0  0  0  0  0  0  0  0  0  0  0  0
   -1.7937    0.9731   -0.3446 C   0  0  0  0  0  0  0  0  0  0  0  0
   -2.9009   -1.8306    2.4300 O   0  0  0  0  0  0  0  0  0  0  0  0
    2.6315   -0.5272   -1.1498 C   0  0  0  0  0  0  0  0  0  0  0  0
   -0.8194    1.7585   -0.4692 O   0  0  0  0  0  0  0  0  0  0  0  0
    1.2216    1.0263   -1.9189 C   0  0  0  0  0  0  0  0  0  0  0  0
    2.4600    1.6317   -1.7649 C   0  0  0  0  0  0  0  0  0  0  0  0
    3.3527    0.6662   -1.2687 C   0  0  0  0  0  0  0  0  0  0  0  0
    0.3456    1.5793   -2.1605 H   0  0  0  0  0  0  0  0  0  0  0  0
    2.6292    2.6692   -1.9023 H   0  0  0  0  0  0  0  0  0  0  0  0
    4.3541    0.8025   -0.9369 H   0  0  0  0  0  0  0  0  0  0  0  0
    0.4344    0.6346   -0.1293 H   0  0  0  0  0  0  0  0  0  0  0  0
    1.2828   -0.3543   -1.5614 C   0  0  0  0  0  0  0  0  0  0  0  0
   -2.5488   -1.2948    0.0894 C   0  0  0  0  0  0  0  0  0  0  0  0
   -0.8211   -1.6955    1.6726 O   0  0  0  0  0  0  0  0  0  0  0  0
    0.7937    1.2601    1.5443 C   0  0  0  0  0  0  0  0  0  0  0  0
    1.8788    0.4055    1.8221 C   0  0  0  0  0  0  0  0  0  0  0  0
    3.0515    1.0587    1.4274 C   0  0  0  0  0  0  0  0  0  0  0  0
    2.7001    2.3150    0.9012 C   0  0  0  0  0  0  0  0  0  0  0  0
    1.3094    2.4207    0.9364 C   0  0  0  0  0  0  0  0  0  0  0  0
    0.7421    3.1315    0.3858 H   0  0  0  0  0  0  0  0  0  0  0  0
   -1.6019   -0.3112   -0.3739 N   0  0  0  0  0  0  0  0  0  0  0  0
   -3.5721   -0.9059    0.0767 H   0  0  0  0  0  0  0  0  0  0  0  0
    3.4286   -1.0237    0.6571 H   0  0  0  0  0  0  0  0  0  0  0  0
    3.8440   -2.2372   -0.5886 H   0  0  0  0  0  0  0  0  0  0  0  0
    3.5993    3.2853    0.2747 C   0  0  0  0  0  0  0  0  0  0  0  0
    4.1194    3.8747    1.0278 H   0  0  0  0  0  0  0  0  0  0  0  0
    4.3350    2.7719   -0.3304 H   0  0  0  0  0  0  0  0  0  0  0  0
    3.0112    3.9559   -0.3406 H   0  0  0  0  0  0  0  0  0  0  0  0
    1.8714   -2.3424    0.1884 N   0  0  0  0  0  0  0  0  0  0  0  0
    2.0543   -3.0029    1.4764 C   0  0  0  0  0  0  0  0  0  0  0  0
    1.5873   -3.3678   -0.8172 C   0  0  0  0  0  0  0  0  0  0  0  0
    2.6906   -3.8926    1.3818 H   0  0  0  0  0  0  0  0  0  0  0  0
    2.5303   -2.3304    2.1868 H   0  0  0  0  0  0  0  0  0  0  0  0
    1.0841   -3.2980    1.8768 H   0  0  0  0  0  0  0  0  0  0  0  0
    2.3981   -4.1120   -0.8564 H   0  0  0  0  0  0  0  0  0  0  0  0
    0.6596   -3.8882   -0.5649 H   0  0  0  0  0  0  0  0  0  0  0  0
    1.4904   -2.9084   -1.8013 H   0  0  0  0  0  0  0  0  0  0  0  0
   -2.4427   -2.5893   -0.7442 C   0  0  0  0  0  0  0  0  0  0  0  0
   -3.6157   -3.5072   -0.4181 C   0  0  0  0  0  0  0  0  0  0  0  0
   -2.3668   -2.2855   -2.2422 C   0  0  0  0  0  0  0  0  0  0  0  0
   -4.5443   -3.0746   -0.7858 H   0  0  0  0  0  0  0  0  0  0  0  0
   -3.4834   -4.4840   -0.8816 H   0  0  0  0  0  0  0  0  0  0  0  0
   -3.7048   -3.6370    0.6583 H   0  0  0  0  0  0  0  0  0  0  0  0
   -1.5014   -3.1009   -0.4518 H   0  0  0  0  0  0  0  0  0  0  0  0
   -3.2387   -1.7143   -2.5549 H   0  0  0  0  0  0  0  0  0  0  0  0
   -1.4696   -1.6989   -2.4634 H   0  0  0  0  0  0  0  0  0  0  0  0
   -2.3344   -3.2118   -2.8141 H   0  0  0  0  0  0  0  0  0  0  0  0
   -3.0648    1.3983   -0.1956 O   0  0  0  0  0  0  0  0  0  0  0  0
   -4.8523    2.8698    0.1524 C   0  0  0  0  0  0  0  0  0  0  0  0
   -3.3358    2.8015   -0.0354 C   0  0  0  0  0  0  0  0  0  0  0  0
   -2.6218    3.3359    1.2086 C   0  0  0  0  0  0  0  0  0  0  0  0
   -2.9147    3.5798   -1.2838 C   0  0  0  0  0  0  0  0  0  0  0  0
   -5.3531    2.4630   -0.7221 H   0  0  0  0  0  0  0  0  0  0  0  0
   -5.1423    2.2816    1.0188 H   0  0  0  0  0  0  0  0  0  0  0  0
   -5.1654    3.8997    0.2970 H   0  0  0  0  0  0  0  0  0  0  0  0
   -2.8910    2.7331    2.0733 H   0  0  0  0  0  0  0  0  0  0  0  0
   -2.9164    4.3659    1.3896 H   0  0  0  0  0  0  0  0  0  0  0  0
   -1.5455    3.2882    1.0669 H   0  0  0  0  0  0  0  0  0  0  0  0
   -3.4131    3.1723   -2.1605 H   0  0  0  0  0  0  0  0  0  0  0  0
   -3.1871    4.6258   -1.1740 H   0  0  0  0  0  0  0  0  0  0  0  0
   -1.8395    3.4969   -1.4201 H   0  0  0  0  0  0  0  0  0  0  0  0
  2  9  2  0  0  0  0
  4 10  1  0  0  0  0
  8 11  4  0  0  0  0
 12 13  4  0  0  0  0
 10 14  4  0  0  0  0
 13 14  4  0  0  0  0
 12 15  1  0  0  0  0
 13 16  1  0  0  0  0
 14 17  1  0  0  0  0
  3 18  1  0  0  0  0
  3 19  1  0  0  0  0
 10 19  4  0  0  0  0
 12 19  1  0  0  0  0
  2 20  1  0  0  0  0
  2 21  4  0  0  0  0
  3 21  1  0  0  0  0
  7 22  1  0  0  0  0
  6 23  1  0  0  0  0
 22 23  4  0  0  0  0
  5 24  1  0  0  0  0
 23 24  4  0  0  0  0
 24 25  4  0  0  0  0
 22 26  4  0  0  0  0
 25 26  4  0  0  0  0
 26 27  1  0  0  0  0
  3 28  1  0  0  0  0
  8 28  4  0  0  0  0
 20 28  1  0  0  0  0
 20 29  1  0  0  0  0
  4 30  1  0  0  0  0
  4 31  1  0  0  0  0
 25 32  1  0  0  0  0
 32 33  1  0  0  0  0
 32 34  1  0  0  0  0
 32 35  1  0  0  0  0
  3 36  1  0  0  0  0
  4 36  1  0  0  0  0
 36 37  1  0  0  0  0
 36 38  1  0  0  0  0
 37 39  1  0  0  0  0
 37 40  1  0  0  0  0
 37 41  1  0  0  0  0
 38 42  1  0  0  0  0
 38 43  1  0  0  0  0
 38 44  1  0  0  0  0
 20 45  1  0  0  0  0
 45 46  1  0  0  0  0
 45 47  1  0  0  0  0
 46 48  1  0  0  0  0
 46 49  1  0  0  0  0
 46 50  1  0  0  0  0
 45 51  1  0  0  0  0
 47 52  1  0  0  0  0
 47 53  1  0  0  0  0
 47 54  1  0  0  0  0
  8 55  1  0  0  0  0
 55 57  1  0  0  0  0
 56 57  1  0  0  0  0
 57 58  1  0  0  0  0
 57 59  1  0  0  0  0
 56 60  1  0  0  0  0
 56 61  1  0  0  0  0
 56 62  1  0  0  0  0
 58 63  1  0  0  0  0
 58 64  1  0  0  0  0
 58 65  1  0  0  0  0
 59 66  1  0  0  0  0
 59 67  1  0  0  0  0
 59 68  1  0  0  0  0
M  END
