 xtb: 6.6.1 (8d0f1dd)
          10142409483D

 68 69  0     0  0            999 V2000
   -2.3713    0.0489   -0.9603 Fe  0  0  0  0  0  0  0  0  0  0  0  0
    1.2809    1.6837    1.9119 C   0  0  0  0  0  0  0  0  0  0  0  0
   -0.4057   -0.3287    0.7381 Pd  0  0  0  0  0  0  0  0  0  0  0  0
   -2.9516   -1.8665    0.9864 C   0  0  0  0  0  0  0  0  0  0  0  0
   -3.5055    1.4264   -2.9394 H   0  0  0  0  0  0  0  0  0  0  0  0
   -5.0186    0.4647   -0.9765 H   0  0  0  0  0  0  0  0  0  0  0  0
   -3.7708    0.8931    1.3042 H   0  0  0  0  0  0  0  0  0  0  0  0
    2.2351   -0.8241   -0.2407 C   0  0  0  0  0  0  0  0  0  0  0  0
    1.8744    2.4560    2.6452 O   0  0  0  0  0  0  0  0  0  0  0  0
   -2.4316   -1.8022   -0.4049 C   0  0  0  0  0  0  0  0  0  0  0  0
    1.7504   -2.0316   -0.5293 O   0  0  0  0  0  0  0  0  0  0  0  0
   -1.1197   -0.9810   -2.0554 C   0  0  0  0  0  0  0  0  0  0  0  0
   -2.4346   -1.0667   -2.5491 C   0  0  0  0  0  0  0  0  0  0  0  0
   -3.2540   -1.5763   -1.5266 C   0  0  0  0  0  0  0  0  0  0  0  0
   -0.3024   -0.6152   -2.6397 H   0  0  0  0  0  0  0  0  0  0  0  0
   -2.7678   -0.7220   -3.5012 H   0  0  0  0  0  0  0  0  0  0  0  0
   -4.3154   -1.6756   -1.5642 H   0  0  0  0  0  0  0  0  0  0  0  0
    0.7314   -1.9563   -0.4993 H   0  0  0  0  0  0  0  0  0  0  0  0
   -1.0743   -1.4778   -0.7223 C   0  0  0  0  0  0  0  0  0  0  0  0
    1.8564    1.4333    0.4630 C   0  0  0  0  0  0  0  0  0  0  0  0
    0.2320    1.0444    2.2104 O   0  0  0  0  0  0  0  0  0  0  0  0
   -2.1386    1.7471    0.0687 C   0  0  0  0  0  0  0  0  0  0  0  0
   -2.0920    1.9527   -1.3321 C   0  0  0  0  0  0  0  0  0  0  0  0
   -3.2850    1.4756   -1.8981 C   0  0  0  0  0  0  0  0  0  0  0  0
   -4.0801    0.9577   -0.8605 C   0  0  0  0  0  0  0  0  0  0  0  0
   -3.3762    1.1257    0.3426 C   0  0  0  0  0  0  0  0  0  0  0  0
   -1.4545    2.1247    0.8061 H   0  0  0  0  0  0  0  0  0  0  0  0
    1.4295    0.1137    0.0777 N   0  0  0  0  0  0  0  0  0  0  0  0
    2.9505    1.4805    0.5168 H   0  0  0  0  0  0  0  0  0  0  0  0
   -3.8071   -1.1920    1.0057 H   0  0  0  0  0  0  0  0  0  0  0  0
   -3.2840   -2.8660    1.3030 H   0  0  0  0  0  0  0  0  0  0  0  0
   -1.3292    2.4432   -1.8852 H   0  0  0  0  0  0  0  0  0  0  0  0
   -1.8946   -1.3651    1.8758 N   0  0  0  0  0  0  0  0  0  0  0  0
   -1.0365   -2.4796    2.3013 C   0  0  0  0  0  0  0  0  0  0  0  0
   -2.3932   -0.7014    3.0698 C   0  0  0  0  0  0  0  0  0  0  0  0
   -1.5722   -3.1281    3.0120 H   0  0  0  0  0  0  0  0  0  0  0  0
   -0.7478   -3.0832    1.4380 H   0  0  0  0  0  0  0  0  0  0  0  0
   -0.1386   -2.0897    2.7969 H   0  0  0  0  0  0  0  0  0  0  0  0
   -2.9592   -1.3928    3.7093 H   0  0  0  0  0  0  0  0  0  0  0  0
   -1.5478   -0.3020    3.6307 H   0  0  0  0  0  0  0  0  0  0  0  0
   -3.0315    0.1342    2.8037 H   0  0  0  0  0  0  0  0  0  0  0  0
    1.3393    2.4737   -0.5639 C   0  0  0  0  0  0  0  0  0  0  0  0
    0.9861    1.7726   -1.8808 C   0  0  0  0  0  0  0  0  0  0  0  0
    2.3748    3.5772   -0.8058 C   0  0  0  0  0  0  0  0  0  0  0  0
    2.5110    4.5328    0.3729 C   0  0  0  0  0  0  0  0  0  0  0  0
    1.8491    1.2262   -2.2586 H   0  0  0  0  0  0  0  0  0  0  0  0
    0.7056    2.5082   -2.6327 H   0  0  0  0  0  0  0  0  0  0  0  0
    0.1495    1.0841   -1.7151 H   0  0  0  0  0  0  0  0  0  0  0  0
    0.4290    2.9387   -0.1717 H   0  0  0  0  0  0  0  0  0  0  0  0
    2.0773    4.1459   -1.6918 H   0  0  0  0  0  0  0  0  0  0  0  0
    3.3424    3.1173   -1.0230 H   0  0  0  0  0  0  0  0  0  0  0  0
    3.3265    5.2328    0.2037 H   0  0  0  0  0  0  0  0  0  0  0  0
    1.5925    5.1011    0.5049 H   0  0  0  0  0  0  0  0  0  0  0  0
    2.7006    3.9855    1.2921 H   0  0  0  0  0  0  0  0  0  0  0  0
    3.5378   -0.6033   -0.3374 O   0  0  0  0  0  0  0  0  0  0  0  0
    5.8390   -0.9172   -0.5567 C   0  0  0  0  0  0  0  0  0  0  0  0
    4.4963   -1.6458   -0.6303 C   0  0  0  0  0  0  0  0  0  0  0  0
    4.4300   -2.7460    0.4279 C   0  0  0  0  0  0  0  0  0  0  0  0
    4.2691   -2.2030   -2.0353 C   0  0  0  0  0  0  0  0  0  0  0  0
    5.8653   -0.1121   -1.2861 H   0  0  0  0  0  0  0  0  0  0  0  0
    5.9746   -0.4883    0.4324 H   0  0  0  0  0  0  0  0  0  0  0  0
    6.6513   -1.6082   -0.7601 H   0  0  0  0  0  0  0  0  0  0  0  0
    4.5047   -2.3083    1.4212 H   0  0  0  0  0  0  0  0  0  0  0  0
    5.2566   -3.4364    0.2864 H   0  0  0  0  0  0  0  0  0  0  0  0
    3.4970   -3.2979    0.3536 H   0  0  0  0  0  0  0  0  0  0  0  0
    4.2584   -1.3912   -2.7594 H   0  0  0  0  0  0  0  0  0  0  0  0
    5.0746   -2.8866   -2.2877 H   0  0  0  0  0  0  0  0  0  0  0  0
    3.3249   -2.7373   -2.0916 H   0  0  0  0  0  0  0  0  0  0  0  0
  2  9  2  0  0  0  0
  4 10  1  0  0  0  0
  8 11  1  0  0  0  0
 12 13  4  0  0  0  0
 10 14  4  0  0  0  0
 13 14  4  0  0  0  0
 12 15  1  0  0  0  0
 13 16  1  0  0  0  0
 14 17  1  0  0  0  0
 11 18  1  0  0  0  0
  3 19  1  0  0  0  0
 10 19  4  0  0  0  0
 12 19  4  0  0  0  0
  2 20  1  0  0  0  0
  2 21  4  0  0  0  0
  3 21  1  0  0  0  0
 22 23  4  0  0  0  0
  5 24  1  0  0  0  0
 23 24  4  0  0  0  0
  6 25  1  0  0  0  0
 24 25  4  0  0  0  0
  7 26  1  0  0  0  0
 22 26  4  0  0  0  0
 25 26  4  0  0  0  0
 22 27  1  0  0  0  0
  3 28  1  0  0  0  0
  8 28  2  0  0  0  0
 20 28  1  0  0  0  0
 20 29  1  0  0  0  0
  4 30  1  0  0  0  0
  4 31  1  0  0  0  0
 23 32  1  0  0  0  0
  3 33  1  0  0  0  0
  4 33  1  0  0  0  0
 33 34  1  0  0  0  0
 33 35  1  0  0  0  0
 34 36  1  0  0  0  0
 34 37  1  0  0  0  0
 34 38  1  0  0  0  0
 35 39  1  0  0  0  0
 35 40  1  0  0  0  0
 35 41  1  0  0  0  0
 20 42  1  0  0  0  0
 42 43  1  0  0  0  0
 42 44  1  0  0  0  0
 44 45  1  0  0  0  0
 43 46  1  0  0  0  0
 43 47  1  0  0  0  0
 43 48  1  0  0  0  0
 42 49  1  0  0  0  0
 44 50  1  0  0  0  0
 44 51  1  0  0  0  0
 45 52  1  0  0  0  0
 45 53  1  0  0  0  0
 45 54  1  0  0  0  0
  8 55  1  0  0  0  0
 55 57  1  0  0  0  0
 56 57  1  0  0  0  0
 57 58  1  0  0  0  0
 57 59  1  0  0  0  0
 56 60  1  0  0  0  0
 56 61  1  0  0  0  0
 56 62  1  0  0  0  0
 58 63  1  0  0  0  0
 58 64  1  0  0  0  0
 58 65  1  0  0  0  0
 59 66  1  0  0  0  0
 59 67  1  0  0  0  0
 59 68  1  0  0  0  0
M  END
