 xtb: 6.6.1 (8d0f1dd)
          10142408503D

 69 71  0     0  0            999 V2000
   -1.5448    1.2333   -0.4416 Fe  0  0  0  0  0  0  0  0  0  0  0  0
    0.0384   -1.2237    2.7565 C   0  0  0  0  0  0  0  0  0  0  0  0
   -0.8833   -1.2101    0.1589 Pd  0  0  0  0  0  0  0  0  0  0  0  0
   -3.3296   -0.8958   -1.3135 C   0  0  0  0  0  0  0  0  0  0  0  0
   -2.5509    3.6159   -0.6279 H   0  0  0  0  0  0  0  0  0  0  0  0
   -4.1912    1.5884   -0.3652 H   0  0  0  0  0  0  0  0  0  0  0  0
   -3.0755   -0.1158    1.4283 H   0  0  0  0  0  0  0  0  0  0  0  0
    1.9161   -1.2791   -0.3705 C   0  0  0  0  0  0  0  0  0  0  0  0
    0.0254   -0.8610    3.9224 O   0  0  0  0  0  0  0  0  0  0  0  0
   -2.2423    0.0006   -1.7624 C   0  0  0  0  0  0  0  0  0  0  0  0
    1.5560   -1.4253   -1.6234 O   0  0  0  0  0  0  0  0  0  0  0  0
   -0.2251    0.9481   -1.9254 C   0  0  0  0  0  0  0  0  0  0  0  0
   -1.1823    1.9231   -2.2299 C   0  0  0  0  0  0  0  0  0  0  0  0
   -2.4407    1.3339   -2.1532 C   0  0  0  0  0  0  0  0  0  0  0  0
    0.8251    1.1280   -1.9420 H   0  0  0  0  0  0  0  0  0  0  0  0
   -1.0270    2.9475   -2.4744 H   0  0  0  0  0  0  0  0  0  0  0  0
   -3.3609    1.8492   -2.2777 H   0  0  0  0  0  0  0  0  0  0  0  0
    0.4864   -1.1760   -1.6713 H   0  0  0  0  0  0  0  0  0  0  0  0
   -0.8542   -0.2810   -1.6298 C   0  0  0  0  0  0  0  0  0  0  0  0
    1.3522   -0.9889    1.9282 C   0  0  0  0  0  0  0  0  0  0  0  0
   -0.9089   -1.8132    2.1570 O   0  0  0  0  0  0  0  0  0  0  0  0
   -1.5440    1.4192    1.5944 C   0  0  0  0  0  0  0  0  0  0  0  0
   -1.4256    2.6761    1.0091 C   0  0  0  0  0  0  0  0  0  0  0  0
   -2.4575    2.8380    0.0908 C   0  0  0  0  0  0  0  0  0  0  0  0
   -3.2971    1.7187    0.1935 C   0  0  0  0  0  0  0  0  0  0  0  0
   -2.6926    0.8112    1.0767 C   0  0  0  0  0  0  0  0  0  0  0  0
   -0.9121    1.0123    2.3520 H   0  0  0  0  0  0  0  0  0  0  0  0
    1.0277   -1.0954    0.5329 N   0  0  0  0  0  0  0  0  0  0  0  0
    2.0240   -1.8132    2.2123 H   0  0  0  0  0  0  0  0  0  0  0  0
   -4.0344   -0.2881   -0.7537 H   0  0  0  0  0  0  0  0  0  0  0  0
   -3.8649   -1.3602   -2.1562 H   0  0  0  0  0  0  0  0  0  0  0  0
   -0.6834    3.4026    1.2322 H   0  0  0  0  0  0  0  0  0  0  0  0
   -2.7601   -1.9110   -0.4263 N   0  0  0  0  0  0  0  0  0  0  0  0
   -2.2576   -3.0548   -1.1973 C   0  0  0  0  0  0  0  0  0  0  0  0
   -3.7070   -2.4131    0.5615 C   0  0  0  0  0  0  0  0  0  0  0  0
   -3.0920   -3.6623   -1.5811 H   0  0  0  0  0  0  0  0  0  0  0  0
   -1.6716   -2.7032   -2.0486 H   0  0  0  0  0  0  0  0  0  0  0  0
   -1.6319   -3.6882   -0.5534 H   0  0  0  0  0  0  0  0  0  0  0  0
   -4.4382   -3.0936    0.1045 H   0  0  0  0  0  0  0  0  0  0  0  0
   -3.1599   -2.9449    1.3412 H   0  0  0  0  0  0  0  0  0  0  0  0
   -4.2594   -1.5990    1.0260 H   0  0  0  0  0  0  0  0  0  0  0  0
    2.0393    0.3409    2.2841 C   0  0  0  0  0  0  0  0  0  0  0  0
    1.9648    1.4409    1.2623 C   0  0  0  0  0  0  0  0  0  0  0  0
    3.0194    2.3587    1.2308 C   0  0  0  0  0  0  0  0  0  0  0  0
    2.9791    3.4754    0.4223 C   0  0  0  0  0  0  0  0  0  0  0  0
    1.8487    3.7300   -0.3437 C   0  0  0  0  0  0  0  0  0  0  0  0
    0.8131    2.8218   -0.3286 C   0  0  0  0  0  0  0  0  0  0  0  0
    0.8841    1.6511    0.4191 C   0  0  0  0  0  0  0  0  0  0  0  0
    1.5680    0.6943    3.2100 H   0  0  0  0  0  0  0  0  0  0  0  0
    3.0889    0.1517    2.5157 H   0  0  0  0  0  0  0  0  0  0  0  0
    3.8792    2.1961    1.8660 H   0  0  0  0  0  0  0  0  0  0  0  0
    3.8124    4.1630    0.4105 H   0  0  0  0  0  0  0  0  0  0  0  0
    1.7836    4.6311   -0.9350 H   0  0  0  0  0  0  0  0  0  0  0  0
   -0.1261    2.9659   -0.8289 H   0  0  0  0  0  0  0  0  0  0  0  0
   -0.0163    1.0408    0.2921 H   0  0  0  0  0  0  0  0  0  0  0  0
    3.1955   -1.3162   -0.0263 O   0  0  0  0  0  0  0  0  0  0  0  0
    5.5099   -1.0354   -0.1363 C   0  0  0  0  0  0  0  0  0  0  0  0
    4.2549   -1.1722   -0.9989 C   0  0  0  0  0  0  0  0  0  0  0  0
    4.3416   -2.4137   -1.8851 C   0  0  0  0  0  0  0  0  0  0  0  0
    4.0422    0.0960   -1.8266 C   0  0  0  0  0  0  0  0  0  0  0  0
    5.4385   -0.1420    0.4778 H   0  0  0  0  0  0  0  0  0  0  0  0
    5.6067   -1.8980    0.5173 H   0  0  0  0  0  0  0  0  0  0  0  0
    6.3912   -0.9658   -0.7665 H   0  0  0  0  0  0  0  0  0  0  0  0
    4.4750   -3.3012   -1.2705 H   0  0  0  0  0  0  0  0  0  0  0  0
    5.1879   -2.3220   -2.5599 H   0  0  0  0  0  0  0  0  0  0  0  0
    3.4338   -2.5244   -2.4717 H   0  0  0  0  0  0  0  0  0  0  0  0
    3.8162    0.9335   -1.1685 H   0  0  0  0  0  0  0  0  0  0  0  0
    4.9463    0.3199   -2.3854 H   0  0  0  0  0  0  0  0  0  0  0  0
    3.2222   -0.0334   -2.5276 H   0  0  0  0  0  0  0  0  0  0  0  0
  2  9  2  0  0  0  0
  4 10  1  0  0  0  0
  8 11  1  0  0  0  0
 12 13  4  0  0  0  0
 10 14  4  0  0  0  0
 13 14  4  0  0  0  0
 12 15  1  0  0  0  0
 13 16  1  0  0  0  0
 14 17  1  0  0  0  0
 11 18  1  0  0  0  0
  3 19  1  0  0  0  0
 10 19  4  0  0  0  0
 12 19  4  0  0  0  0
  2 20  1  0  0  0  0
  2 21  4  0  0  0  0
  3 21  1  0  0  0  0
 22 23  4  0  0  0  0
  5 24  1  0  0  0  0
 23 24  4  0  0  0  0
  6 25  1  0  0  0  0
 24 25  4  0  0  0  0
  7 26  1  0  0  0  0
 22 26  4  0  0  0  0
 25 26  4  0  0  0  0
 22 27  1  0  0  0  0
  3 28  1  0  0  0  0
  8 28  2  0  0  0  0
 20 28  1  0  0  0  0
 20 29  1  0  0  0  0
  4 30  1  0  0  0  0
  4 31  1  0  0  0  0
 23 32  1  0  0  0  0
  3 33  1  0  0  0  0
  4 33  1  0  0  0  0
 33 34  1  0  0  0  0
 33 35  1  0  0  0  0
 34 36  1  0  0  0  0
 34 37  1  0  0  0  0
 34 38  1  0  0  0  0
 35 39  1  0  0  0  0
 35 40  1  0  0  0  0
 35 41  1  0  0  0  0
 20 42  1  0  0  0  0
 42 43  1  0  0  0  0
 43 44  4  0  0  0  0
 44 45  4  0  0  0  0
 45 46  4  0  0  0  0
 46 47  4  0  0  0  0
 43 48  4  0  0  0  0
 47 48  4  0  0  0  0
 42 49  1  0  0  0  0
 42 50  1  0  0  0  0
 44 51  1  0  0  0  0
 45 52  1  0  0  0  0
 46 53  1  0  0  0  0
 47 54  1  0  0  0  0
 48 55  1  0  0  0  0
  8 56  1  0  0  0  0
 56 58  1  0  0  0  0
 57 58  1  0  0  0  0
 58 59  1  0  0  0  0
 58 60  1  0  0  0  0
 57 61  1  0  0  0  0
 57 62  1  0  0  0  0
 57 63  1  0  0  0  0
 59 64  1  0  0  0  0
 59 65  1  0  0  0  0
 59 66  1  0  0  0  0
 60 67  1  0  0  0  0
 60 68  1  0  0  0  0
 60 69  1  0  0  0  0
M  END
