 xtb: 6.6.1 (8d0f1dd)
          10152408333D

 71 75  0     0  0            999 V2000
    3.3702    0.0552    0.1473 Fe  0  0  0  0  0  0  0  0  0  0  0  0
   -0.9178    1.4824   -1.5256 C   0  0  0  0  0  0  0  0  0  0  0  0
    0.8446   -0.5024   -0.3927 Pd  0  0  0  0  0  0  0  0  0  0  0  0
    3.1733   -1.8727   -0.6382 C   0  0  0  0  0  0  0  0  0  0  0  0
    5.5976   -0.4279   -1.2578 H   0  0  0  0  0  0  0  0  0  0  0  0
    3.3025   -0.1964   -2.6072 H   0  0  0  0  0  0  0  0  0  0  0  0
    1.9062    1.7533   -1.5701 H   0  0  0  0  0  0  0  0  0  0  0  0
   -1.1342   -0.2782    1.5479 C   0  0  0  0  0  0  0  0  0  0  0  0
   -1.5490    2.2157   -2.2699 O   0  0  0  0  0  0  0  0  0  0  0  0
    3.1134   -1.7592    0.7740 C   0  0  0  0  0  0  0  0  0  0  0  0
   -0.5043   -1.2561    2.1539 O   0  0  0  0  0  0  0  0  0  0  0  0
    2.4975    0.1006    1.8951 C   0  0  0  0  0  0  0  0  0  0  0  0
    3.8966   -0.0192    2.0164 C   0  0  0  0  0  0  0  0  0  0  0  0
    4.2975   -1.1549    1.3146 C   0  0  0  0  0  0  0  0  0  0  0  0
    1.9594    0.9413    2.2826 H   0  0  0  0  0  0  0  0  0  0  0  0
    4.5338    0.7055    2.4680 H   0  0  0  0  0  0  0  0  0  0  0  0
    5.3005   -1.4340    1.0845 H   0  0  0  0  0  0  0  0  0  0  0  0
    0.5092   -1.3010    1.7225 H   0  0  0  0  0  0  0  0  0  0  0  0
    1.9579   -1.0008    1.1898 C   0  0  0  0  0  0  0  0  0  0  0  0
   -1.2259    1.5384    0.0124 C   0  0  0  0  0  0  0  0  0  0  0  0
   -0.0318    0.6631   -1.9116 O   0  0  0  0  0  0  0  0  0  0  0  0
    3.6040    1.9372   -0.1158 C   0  0  0  0  0  0  0  0  0  0  0  0
    4.8448    1.2722   -0.0844 C   0  0  0  0  0  0  0  0  0  0  0  0
    4.8384    0.3027   -1.0982 C   0  0  0  0  0  0  0  0  0  0  0  0
    3.6249    0.4189   -1.7970 C   0  0  0  0  0  0  0  0  0  0  0  0
    2.8526    1.4214   -1.1986 C   0  0  0  0  0  0  0  0  0  0  0  0
    3.2990    2.6578    0.6052 H   0  0  0  0  0  0  0  0  0  0  0  0
   -0.5566    0.4317    0.6508 N   0  0  0  0  0  0  0  0  0  0  0  0
   -2.3144    1.4487    0.1272 H   0  0  0  0  0  0  0  0  0  0  0  0
    4.1436   -2.1436   -1.0564 H   0  0  0  0  0  0  0  0  0  0  0  0
    5.5979    1.3819    0.6596 H   0  0  0  0  0  0  0  0  0  0  0  0
    2.1787   -1.7989   -1.3925 O   0  0  0  0  0  0  0  0  0  0  0  0
   -0.7804    2.8644    0.6828 C   0  0  0  0  0  0  0  0  0  0  0  0
    0.7269    3.0467    0.4810 C   0  0  0  0  0  0  0  0  0  0  0  0
   -1.0757    2.8044    2.1871 C   0  0  0  0  0  0  0  0  0  0  0  0
   -1.5532    4.0361    0.0795 C   0  0  0  0  0  0  0  0  0  0  0  0
    1.2438    2.0930    0.6367 H   0  0  0  0  0  0  0  0  0  0  0  0
    1.1105    3.7893    1.1790 H   0  0  0  0  0  0  0  0  0  0  0  0
    0.9231    3.3978   -0.5282 H   0  0  0  0  0  0  0  0  0  0  0  0
   -0.8591    3.7691    2.6422 H   0  0  0  0  0  0  0  0  0  0  0  0
   -2.1214    2.5661    2.3631 H   0  0  0  0  0  0  0  0  0  0  0  0
   -0.4673    2.0485    2.6811 H   0  0  0  0  0  0  0  0  0  0  0  0
   -1.4904    4.0146   -1.0045 H   0  0  0  0  0  0  0  0  0  0  0  0
   -2.6036    3.9763    0.3553 H   0  0  0  0  0  0  0  0  0  0  0  0
   -1.1496    4.9787    0.4440 H   0  0  0  0  0  0  0  0  0  0  0  0
   -2.3637    0.0179    1.9895 O   0  0  0  0  0  0  0  0  0  0  0  0
   -3.1678   -1.0764    2.4157 C   0  0  0  0  0  0  0  0  0  0  0  0
   -3.7985   -1.7651    1.1883 C   0  0  0  0  0  0  0  0  0  0  0  0
   -4.6101   -0.7673    0.3978 C   0  0  0  0  0  0  0  0  0  0  0  0
   -5.7402   -0.0765    0.7771 C   0  0  0  0  0  0  0  0  0  0  0  0
   -6.2695    0.8622   -0.0995 C   0  0  0  0  0  0  0  0  0  0  0  0
   -5.6662    1.1132   -1.3226 C   0  0  0  0  0  0  0  0  0  0  0  0
   -4.5310    0.4210   -1.7124 C   0  0  0  0  0  0  0  0  0  0  0  0
   -4.0117   -0.5282   -0.8478 C   0  0  0  0  0  0  0  0  0  0  0  0
   -2.8441   -1.3878   -0.9714 C   0  0  0  0  0  0  0  0  0  0  0  0
   -1.9188   -1.5133   -1.9960 C   0  0  0  0  0  0  0  0  0  0  0  0
   -0.8414   -2.3758   -1.8149 C   0  0  0  0  0  0  0  0  0  0  0  0
   -0.7297   -3.1408   -0.6519 C   0  0  0  0  0  0  0  0  0  0  0  0
   -1.6888   -3.0521    0.3538 C   0  0  0  0  0  0  0  0  0  0  0  0
   -2.7264   -2.1540    0.1997 C   0  0  0  0  0  0  0  0  0  0  0  0
   -3.9397   -0.6352    3.0491 H   0  0  0  0  0  0  0  0  0  0  0  0
   -2.5671   -1.7822    2.9960 H   0  0  0  0  0  0  0  0  0  0  0  0
   -4.3898   -2.6168    1.5363 H   0  0  0  0  0  0  0  0  0  0  0  0
   -6.2077   -0.2558    1.7353 H   0  0  0  0  0  0  0  0  0  0  0  0
   -7.1560    1.4119    0.1819 H   0  0  0  0  0  0  0  0  0  0  0  0
   -6.0839    1.8629   -1.9779 H   0  0  0  0  0  0  0  0  0  0  0  0
   -4.0476    0.6363   -2.6521 H   0  0  0  0  0  0  0  0  0  0  0  0
   -2.0170   -0.9368   -2.9033 H   0  0  0  0  0  0  0  0  0  0  0  0
   -0.1043   -2.4878   -2.6005 H   0  0  0  0  0  0  0  0  0  0  0  0
    0.0949   -3.8347   -0.5474 H   0  0  0  0  0  0  0  0  0  0  0  0
   -1.6043   -3.6558    1.2468 H   0  0  0  0  0  0  0  0  0  0  0  0
  2  9  2  0  0  0  0
  4 10  1  0  0  0  0
  8 11  1  0  0  0  0
 12 13  4  0  0  0  0
 10 14  1  0  0  0  0
 13 14  4  0  0  0  0
 12 15  1  0  0  0  0
 13 16  1  0  0  0  0
 14 17  1  0  0  0  0
 11 18  1  0  0  0  0
  3 19  1  0  0  0  0
 10 19  1  0  0  0  0
 12 19  4  0  0  0  0
  2 20  1  0  0  0  0
  2 21  4  0  0  0  0
  3 21  1  0  0  0  0
 22 23  4  0  0  0  0
  5 24  1  0  0  0  0
 23 24  4  0  0  0  0
  6 25  1  0  0  0  0
 24 25  4  0  0  0  0
  7 26  1  0  0  0  0
 22 26  4  0  0  0  0
 25 26  4  0  0  0  0
 22 27  1  0  0  0  0
  3 28  1  0  0  0  0
  8 28  2  0  0  0  0
 20 28  1  0  0  0  0
 20 29  1  0  0  0  0
  4 30  1  0  0  0  0
 23 31  1  0  0  0  0
  3 32  1  0  0  0  0
  4 32  4  0  0  0  0
 20 33  1  0  0  0  0
 33 34  1  0  0  0  0
 33 35  1  0  0  0  0
 33 36  1  0  0  0  0
 34 37  1  0  0  0  0
 34 38  1  0  0  0  0
 34 39  1  0  0  0  0
 35 40  1  0  0  0  0
 35 41  1  0  0  0  0
 35 42  1  0  0  0  0
 36 43  1  0  0  0  0
 36 44  1  0  0  0  0
 36 45  1  0  0  0  0
  8 46  1  0  0  0  0
 46 47  1  0  0  0  0
 47 48  1  0  0  0  0
 48 49  1  0  0  0  0
 49 50  4  0  0  0  0
 50 51  4  0  0  0  0
 51 52  4  0  0  0  0
 52 53  4  0  0  0  0
 49 54  4  0  0  0  0
 53 54  4  0  0  0  0
 54 55  1  0  0  0  0
 55 56  4  0  0  0  0
 56 57  4  0  0  0  0
 57 58  4  0  0  0  0
 58 59  4  0  0  0  0
 48 60  1  0  0  0  0
 55 60  4  0  0  0  0
 59 60  4  0  0  0  0
 47 61  1  0  0  0  0
 47 62  1  0  0  0  0
 48 63  1  0  0  0  0
 50 64  1  0  0  0  0
 51 65  1  0  0  0  0
 52 66  1  0  0  0  0
 53 67  1  0  0  0  0
 56 68  1  0  0  0  0
 57 69  1  0  0  0  0
 58 70  1  0  0  0  0
 59 71  1  0  0  0  0
M  END
