 xtb: 6.6.1 (8d0f1dd)
          10152400143D

 68 69  0     0  0            999 V2000
    1.9245    1.2276   -0.0568 Fe  0  0  0  0  0  0  0  0  0  0  0  0
   -1.5565   -1.9905    1.5683 C   0  0  0  0  0  0  0  0  0  0  0  0
    0.4802   -0.9603   -0.1054 Pd  0  0  0  0  0  0  0  0  0  0  0  0
    3.4001   -1.0571   -0.3432 C   0  0  0  0  0  0  0  0  0  0  0  0
    3.3267    3.4185    0.3799 H   0  0  0  0  0  0  0  0  0  0  0  0
    4.1683    1.1625    1.4168 H   0  0  0  0  0  0  0  0  0  0  0  0
    2.0114   -0.1798    2.3474 H   0  0  0  0  0  0  0  0  0  0  0  0
   -1.7038    0.9507   -0.1738 C   0  0  0  0  0  0  0  0  0  0  0  0
   -2.1935   -2.6122    2.4037 O   0  0  0  0  0  0  0  0  0  0  0  0
    2.8280   -0.0136   -1.2160 C   0  0  0  0  0  0  0  0  0  0  0  0
   -0.8080    1.8181   -0.3522 O   0  0  0  0  0  0  0  0  0  0  0  0
    1.2280    1.3935   -1.8845 C   0  0  0  0  0  0  0  0  0  0  0  0
    2.3840    2.1448   -1.6989 C   0  0  0  0  0  0  0  0  0  0  0  0
    3.3985    1.2674   -1.2774 C   0  0  0  0  0  0  0  0  0  0  0  0
    0.2899    1.8418   -2.1122 H   0  0  0  0  0  0  0  0  0  0  0  0
    2.4276    3.2077   -1.7230 H   0  0  0  0  0  0  0  0  0  0  0  0
    4.3742    1.5382   -0.9477 H   0  0  0  0  0  0  0  0  0  0  0  0
    0.5149    0.8662   -0.1006 H   0  0  0  0  0  0  0  0  0  0  0  0
    1.4555    0.0093   -1.5972 C   0  0  0  0  0  0  0  0  0  0  0  0
   -2.2913   -1.3259    0.3602 C   0  0  0  0  0  0  0  0  0  0  0  0
   -0.2966   -1.8110    1.6152 O   0  0  0  0  0  0  0  0  0  0  0  0
    2.0321    0.7631    1.8509 C   0  0  0  0  0  0  0  0  0  0  0  0
    3.1517    1.4818    1.4108 C   0  0  0  0  0  0  0  0  0  0  0  0
    2.7136    2.7087    0.8809 C   0  0  0  0  0  0  0  0  0  0  0  0
    1.3209    2.7471    0.9778 C   0  0  0  0  0  0  0  0  0  0  0  0
    0.8950    1.5605    1.6100 C   0  0  0  0  0  0  0  0  0  0  0  0
   -0.1023    1.3243    1.9077 H   0  0  0  0  0  0  0  0  0  0  0  0
   -1.3977   -0.3110   -0.1525 N   0  0  0  0  0  0  0  0  0  0  0  0
   -3.2079   -0.8572    0.7399 H   0  0  0  0  0  0  0  0  0  0  0  0
    3.7451   -0.5205    0.5371 H   0  0  0  0  0  0  0  0  0  0  0  0
    4.2423   -1.6054   -0.7913 H   0  0  0  0  0  0  0  0  0  0  0  0
    0.6905    3.4363    0.4693 H   0  0  0  0  0  0  0  0  0  0  0  0
    2.3268   -1.9726    0.0446 N   0  0  0  0  0  0  0  0  0  0  0  0
    2.6185   -2.6200    1.3186 C   0  0  0  0  0  0  0  0  0  0  0  0
    2.1693   -3.0116   -0.9728 C   0  0  0  0  0  0  0  0  0  0  0  0
    3.4035   -3.3794    1.2080 H   0  0  0  0  0  0  0  0  0  0  0  0
    2.9607   -1.8866    2.0454 H   0  0  0  0  0  0  0  0  0  0  0  0
    1.7150   -3.0907    1.7054 H   0  0  0  0  0  0  0  0  0  0  0  0
    3.0801   -3.6255   -1.0465 H   0  0  0  0  0  0  0  0  0  0  0  0
    1.3374   -3.6660   -0.7064 H   0  0  0  0  0  0  0  0  0  0  0  0
    1.9825   -2.5532   -1.9444 H   0  0  0  0  0  0  0  0  0  0  0  0
   -2.6923   -2.3605   -0.7217 C   0  0  0  0  0  0  0  0  0  0  0  0
   -1.4758   -3.2015   -1.1262 C   0  0  0  0  0  0  0  0  0  0  0  0
   -3.2149   -1.6122   -1.9523 C   0  0  0  0  0  0  0  0  0  0  0  0
   -3.7882   -3.2652   -0.1579 C   0  0  0  0  0  0  0  0  0  0  0  0
   -0.7013   -2.5411   -1.5558 H   0  0  0  0  0  0  0  0  0  0  0  0
   -1.7597   -3.9342   -1.8812 H   0  0  0  0  0  0  0  0  0  0  0  0
   -1.0903   -3.7382   -0.2554 H   0  0  0  0  0  0  0  0  0  0  0  0
   -3.5591   -2.3182   -2.7061 H   0  0  0  0  0  0  0  0  0  0  0  0
   -4.0440   -0.9644   -1.6769 H   0  0  0  0  0  0  0  0  0  0  0  0
   -2.4280   -0.9935   -2.3830 H   0  0  0  0  0  0  0  0  0  0  0  0
   -3.4770   -3.6876    0.7942 H   0  0  0  0  0  0  0  0  0  0  0  0
   -4.6999   -2.6960    0.0099 H   0  0  0  0  0  0  0  0  0  0  0  0
   -4.0088   -4.0745   -0.8522 H   0  0  0  0  0  0  0  0  0  0  0  0
   -2.9991    1.2780    0.0071 O   0  0  0  0  0  0  0  0  0  0  0  0
   -4.9000    2.6106    0.3099 C   0  0  0  0  0  0  0  0  0  0  0  0
   -3.3880    2.6612    0.0826 C   0  0  0  0  0  0  0  0  0  0  0  0
   -2.6943    3.3439    1.2637 C   0  0  0  0  0  0  0  0  0  0  0  0
   -3.0699    3.3830   -1.2284 C   0  0  0  0  0  0  0  0  0  0  0  0
   -5.3829    2.1015   -0.5199 H   0  0  0  0  0  0  0  0  0  0  0  0
   -5.1190    2.0633    1.2229 H   0  0  0  0  0  0  0  0  0  0  0  0
   -5.2996    3.6171    0.3924 H   0  0  0  0  0  0  0  0  0  0  0  0
   -2.8967    2.7933    2.1799 H   0  0  0  0  0  0  0  0  0  0  0  0
   -3.0664    4.3588    1.3725 H   0  0  0  0  0  0  0  0  0  0  0  0
   -1.6210    3.3696    1.0966 H   0  0  0  0  0  0  0  0  0  0  0  0
   -3.5366    2.8613   -2.0609 H   0  0  0  0  0  0  0  0  0  0  0  0
   -3.4490    4.4003   -1.1891 H   0  0  0  0  0  0  0  0  0  0  0  0
   -1.9944    3.4032   -1.3841 H   0  0  0  0  0  0  0  0  0  0  0  0
  2  9  2  0  0  0  0
  4 10  1  0  0  0  0
  8 11  4  0  0  0  0
 12 13  4  0  0  0  0
 10 14  4  0  0  0  0
 13 14  4  0  0  0  0
 12 15  1  0  0  0  0
 13 16  1  0  0  0  0
 14 17  1  0  0  0  0
  3 18  1  0  0  0  0
  3 19  1  0  0  0  0
 10 19  4  0  0  0  0
 12 19  1  0  0  0  0
  2 20  1  0  0  0  0
  2 21  4  0  0  0  0
  3 21  1  0  0  0  0
  7 22  1  0  0  0  0
  6 23  1  0  0  0  0
 22 23  4  0  0  0  0
  5 24  1  0  0  0  0
 23 24  4  0  0  0  0
 24 25  4  0  0  0  0
 22 26  4  0  0  0  0
 25 26  4  0  0  0  0
 26 27  1  0  0  0  0
  3 28  1  0  0  0  0
  8 28  4  0  0  0  0
 20 28  1  0  0  0  0
 20 29  1  0  0  0  0
  4 30  1  0  0  0  0
  4 31  1  0  0  0  0
 25 32  1  0  0  0  0
  3 33  1  0  0  0  0
  4 33  1  0  0  0  0
 33 34  1  0  0  0  0
 33 35  1  0  0  0  0
 34 36  1  0  0  0  0
 34 37  1  0  0  0  0
 34 38  1  0  0  0  0
 35 39  1  0  0  0  0
 35 40  1  0  0  0  0
 35 41  1  0  0  0  0
 20 42  1  0  0  0  0
 42 43  1  0  0  0  0
 42 44  1  0  0  0  0
 42 45  1  0  0  0  0
 43 46  1  0  0  0  0
 43 47  1  0  0  0  0
 43 48  1  0  0  0  0
 44 49  1  0  0  0  0
 44 50  1  0  0  0  0
 44 51  1  0  0  0  0
 45 52  1  0  0  0  0
 45 53  1  0  0  0  0
 45 54  1  0  0  0  0
  8 55  1  0  0  0  0
 55 57  1  0  0  0  0
 56 57  1  0  0  0  0
 57 58  1  0  0  0  0
 57 59  1  0  0  0  0
 56 60  1  0  0  0  0
 56 61  1  0  0  0  0
 56 62  1  0  0  0  0
 58 63  1  0  0  0  0
 58 64  1  0  0  0  0
 58 65  1  0  0  0  0
 59 66  1  0  0  0  0
 59 67  1  0  0  0  0
 59 68  1  0  0  0  0
M  END
