 xtb: 6.6.1 (8d0f1dd)
          10142411113D

 68 69  0     0  0            999 V2000
   -2.0578   -0.2865    0.4752 Fe  0  0  0  0  0  0  0  0  0  0  0  0
    0.9474   -1.1485   -2.1976 C   0  0  0  0  0  0  0  0  0  0  0  0
   -0.0181    0.7232   -0.3452 Pd  0  0  0  0  0  0  0  0  0  0  0  0
   -2.2780    2.5280    0.2818 C   0  0  0  0  0  0  0  0  0  0  0  0
   -4.1227    0.7200   -0.9660 H   0  0  0  0  0  0  0  0  0  0  0  0
   -1.8286    0.0486   -2.3013 H   0  0  0  0  0  0  0  0  0  0  0  0
   -0.9632   -2.1657   -1.2934 H   0  0  0  0  0  0  0  0  0  0  0  0
    2.4057    0.2883    0.4181 C   0  0  0  0  0  0  0  0  0  0  0  0
    0.8213   -1.9767   -3.0859 O   0  0  0  0  0  0  0  0  0  0  0  0
   -2.0041    1.4828    1.2902 C   0  0  0  0  0  0  0  0  0  0  0  0
    2.1972    1.4507    0.8045 O   0  0  0  0  0  0  0  0  0  0  0  0
   -0.9527   -0.2906    2.1477 C   0  0  0  0  0  0  0  0  0  0  0  0
   -2.3173   -0.4624    2.3811 C   0  0  0  0  0  0  0  0  0  0  0  0
   -2.9820    0.6636    1.8658 C   0  0  0  0  0  0  0  0  0  0  0  0
   -0.1983   -0.9462    2.5188 H   0  0  0  0  0  0  0  0  0  0  0  0
   -2.7517   -1.3478    2.7799 H   0  0  0  0  0  0  0  0  0  0  0  0
   -4.0286    0.8354    1.8110 H   0  0  0  0  0  0  0  0  0  0  0  0
    0.1664    1.5936    1.8824 H   0  0  0  0  0  0  0  0  0  0  0  0
   -0.6898    0.9978    1.5950 C   0  0  0  0  0  0  0  0  0  0  0  0
    1.6051   -1.5852   -0.8411 C   0  0  0  0  0  0  0  0  0  0  0  0
    0.6111    0.0776   -2.2883 O   0  0  0  0  0  0  0  0  0  0  0  0
   -2.7131   -2.0724    0.0537 C   0  0  0  0  0  0  0  0  0  0  0  0
   -3.7675   -1.1448    0.1105 C   0  0  0  0  0  0  0  0  0  0  0  0
   -3.4957   -0.1303   -0.8276 C   0  0  0  0  0  0  0  0  0  0  0  0
   -2.2868   -0.4290   -1.4651 C   0  0  0  0  0  0  0  0  0  0  0  0
   -1.8103   -1.6431   -0.9214 C   0  0  0  0  0  0  0  0  0  0  0  0
   -2.5994   -2.8943    0.7201 H   0  0  0  0  0  0  0  0  0  0  0  0
    1.4044   -0.5163    0.1007 N   0  0  0  0  0  0  0  0  0  0  0  0
    2.6741   -1.6714   -1.0779 H   0  0  0  0  0  0  0  0  0  0  0  0
   -3.2758    2.3269   -0.1043 H   0  0  0  0  0  0  0  0  0  0  0  0
   -2.2578    3.5522    0.6780 H   0  0  0  0  0  0  0  0  0  0  0  0
   -4.9507   -1.2531    0.9766 C   0  0  0  0  0  0  0  0  0  0  0  0
   -5.5671   -2.0896    0.6522 H   0  0  0  0  0  0  0  0  0  0  0  0
   -4.6474   -1.4370    2.0000 H   0  0  0  0  0  0  0  0  0  0  0  0
   -5.5532   -0.3522    0.9294 H   0  0  0  0  0  0  0  0  0  0  0  0
   -1.2891    2.3640   -0.7963 N   0  0  0  0  0  0  0  0  0  0  0  0
   -0.1775    3.3143   -0.6644 C   0  0  0  0  0  0  0  0  0  0  0  0
   -1.8894    2.5542   -2.1097 C   0  0  0  0  0  0  0  0  0  0  0  0
   -0.5115    4.3444   -0.8614 H   0  0  0  0  0  0  0  0  0  0  0  0
    0.2506    3.2763    0.3395 H   0  0  0  0  0  0  0  0  0  0  0  0
    0.6057    3.0548   -1.3902 H   0  0  0  0  0  0  0  0  0  0  0  0
   -2.1620    3.6056   -2.2731 H   0  0  0  0  0  0  0  0  0  0  0  0
   -1.1742    2.2560   -2.8768 H   0  0  0  0  0  0  0  0  0  0  0  0
   -2.7830    1.9462   -2.2064 H   0  0  0  0  0  0  0  0  0  0  0  0
    1.1089   -2.9506   -0.3174 C   0  0  0  0  0  0  0  0  0  0  0  0
    2.2930   -3.8276    0.0896 C   0  0  0  0  0  0  0  0  0  0  0  0
    0.1553   -2.7819    0.8726 C   0  0  0  0  0  0  0  0  0  0  0  0
    2.9224   -4.0442   -0.7703 H   0  0  0  0  0  0  0  0  0  0  0  0
    2.8948   -3.3199    0.8409 H   0  0  0  0  0  0  0  0  0  0  0  0
    1.9419   -4.7713    0.5037 H   0  0  0  0  0  0  0  0  0  0  0  0
    0.6020   -3.4545   -1.1480 H   0  0  0  0  0  0  0  0  0  0  0  0
    0.7541   -2.6494    1.7703 H   0  0  0  0  0  0  0  0  0  0  0  0
   -0.5050   -1.9169    0.7489 H   0  0  0  0  0  0  0  0  0  0  0  0
   -0.4380   -3.6842    0.9989 H   0  0  0  0  0  0  0  0  0  0  0  0
    3.6352   -0.2714    0.3704 O   0  0  0  0  0  0  0  0  0  0  0  0
    5.9815   -0.4670    0.4148 C   0  0  0  0  0  0  0  0  0  0  0  0
    4.8122    0.5092    0.6437 C   0  0  0  0  0  0  0  0  0  0  0  0
    4.8934    1.6897   -0.3272 C   0  0  0  0  0  0  0  0  0  0  0  0
    4.7929    1.0015    2.0928 C   0  0  0  0  0  0  0  0  0  0  0  0
    6.5625   -0.6012    1.3228 H   0  0  0  0  0  0  0  0  0  0  0  0
    5.5834   -1.4333    0.1160 H   0  0  0  0  0  0  0  0  0  0  0  0
    6.6408   -0.1103   -0.3713 H   0  0  0  0  0  0  0  0  0  0  0  0
    4.8512    1.3267   -1.3526 H   0  0  0  0  0  0  0  0  0  0  0  0
    5.8249    2.2291   -0.1758 H   0  0  0  0  0  0  0  0  0  0  0  0
    4.0593    2.3661   -0.1586 H   0  0  0  0  0  0  0  0  0  0  0  0
    4.7001    0.1545    2.7698 H   0  0  0  0  0  0  0  0  0  0  0  0
    5.7138    1.5360    2.3114 H   0  0  0  0  0  0  0  0  0  0  0  0
    3.9474    1.6668    2.2460 H   0  0  0  0  0  0  0  0  0  0  0  0
  2  9  2  0  0  0  0
  4 10  1  0  0  0  0
  8 11  4  0  0  0  0
 12 13  4  0  0  0  0
 10 14  4  0  0  0  0
 13 14  4  0  0  0  0
 12 15  1  0  0  0  0
 13 16  1  0  0  0  0
 14 17  1  0  0  0  0
  3 19  1  0  0  0  0
 10 19  1  0  0  0  0
 12 19  1  0  0  0  0
 18 19  1  0  0  0  0
  2 20  1  0  0  0  0
  2 21  4  0  0  0  0
  3 21  1  0  0  0  0
 22 23  4  0  0  0  0
  5 24  1  0  0  0  0
 23 24  4  0  0  0  0
  6 25  1  0  0  0  0
 24 25  4  0  0  0  0
  7 26  1  0  0  0  0
 22 26  4  0  0  0  0
 25 26  4  0  0  0  0
 22 27  1  0  0  0  0
  3 28  1  0  0  0  0
  8 28  4  0  0  0  0
 20 28  1  0  0  0  0
 20 29  1  0  0  0  0
  4 30  1  0  0  0  0
  4 31  1  0  0  0  0
 23 32  1  0  0  0  0
 32 33  1  0  0  0  0
 32 34  1  0  0  0  0
 32 35  1  0  0  0  0
  3 36  1  0  0  0  0
  4 36  1  0  0  0  0
 36 37  1  0  0  0  0
 36 38  1  0  0  0  0
 37 39  1  0  0  0  0
 37 40  1  0  0  0  0
 37 41  1  0  0  0  0
 38 42  1  0  0  0  0
 38 43  1  0  0  0  0
 38 44  1  0  0  0  0
 20 45  1  0  0  0  0
 45 46  1  0  0  0  0
 45 47  1  0  0  0  0
 46 48  1  0  0  0  0
 46 49  1  0  0  0  0
 46 50  1  0  0  0  0
 45 51  1  0  0  0  0
 47 52  1  0  0  0  0
 47 53  1  0  0  0  0
 47 54  1  0  0  0  0
  8 55  1  0  0  0  0
 55 57  1  0  0  0  0
 56 57  1  0  0  0  0
 57 58  1  0  0  0  0
 57 59  1  0  0  0  0
 56 60  1  0  0  0  0
 56 61  1  0  0  0  0
 56 62  1  0  0  0  0
 58 63  1  0  0  0  0
 58 64  1  0  0  0  0
 58 65  1  0  0  0  0
 59 66  1  0  0  0  0
 59 67  1  0  0  0  0
 59 68  1  0  0  0  0
M  END
